clock {
	timezone CST+6CDT;
	starttime '2009-01-01 12:00:00';
	stoptime '2009-01-01 12:30:00';
	};
#set minimum_timestep=4;

//Input feeder information for Taxonomy Feeders with different cases.
//Started on 10/21/09. This version created 29-Sep-2017 11:15:14.
// This version was created to perform FY11 Department of Energy
// analysis on the benefits of the SGIG grant projects.

//clock {
//	timezone CST+6CDT;
//	starttime '2010-01-01 12:00:00';
//	stoptime '2010-01-01 14:00:00';
//}
//#set minimum_timestep=60;


#include "appliance_schedules.glm";
#include "water_and_setpoint_schedule_v5.glm";
#include "commercial_schedules.glm";
#set profiler=1;
#set relax_naming_rules=1;

module tape;

module climate;

module residential {
	implicit_enduses NONE;
};

module powerflow {
	solver_method NR;
	NR_iteration_limit 50;
	lu_solver "KLU_x64";
};

class player {
	double value;
};

object climate {
	name "IL-Chicago";
	tmyfile "IL-Chicago.tmy2";
	interpolate QUADRATIC;
}

object regulator_configuration {
	name feeder_reg_cfg;
	Control OUTPUT_VOLTAGE;
	band_center 7500.0;
	band_width 120;
	connect_type WYE_WYE;
	time_delay 30;
	raise_taps 16;
	lower_taps 16;
	regulation 0.10;
	tap_pos_A 0;
	tap_pos_B 0;
	tap_pos_C 0;
}

object regulator_configuration {
	name voltage_reg_cfg;
	Control OUTPUT_VOLTAGE;
	band_center 7500.0;
	band_width 120;
	connect_type WYE_WYE;
	time_delay 30;
	raise_taps 16;
	lower_taps 16;
	regulation 0.10;
	tap_pos_A 0;
	tap_pos_B 0;
	tap_pos_C 0;
}

object line_configuration {
	name line_configuration_24;
	conductor_A overhead_line_conductor_2;
	conductor_N overhead_line_conductor_2;
	spacing line_spacing_17;
}

object line_configuration {
	name line_configuration_25;
	conductor_A overhead_line_conductor_3;
	conductor_B overhead_line_conductor_3;
	conductor_C overhead_line_conductor_3;
	conductor_N overhead_line_conductor_3;
	spacing line_spacing_18;
}

object line_configuration {
	name line_configuration_26;
	conductor_A overhead_line_conductor_4;
	conductor_N overhead_line_conductor_4;
	spacing line_spacing_17;
}

object line_configuration {
	name line_configuration_27;
	conductor_A overhead_line_conductor_5;
	conductor_N overhead_line_conductor_5;
	spacing line_spacing_17;
}

object line_configuration {
	name line_configuration_28;
	conductor_C overhead_line_conductor_2;
	conductor_N overhead_line_conductor_2;
	spacing line_spacing_19;
}

object line_configuration {
	name line_configuration_29;
	conductor_C overhead_line_conductor_2;
	conductor_N overhead_line_conductor_2;
	spacing line_spacing_19;
}

object line_configuration {
	name line_configuration_30;
	conductor_A overhead_line_conductor_6;
	conductor_B overhead_line_conductor_6;
	conductor_C overhead_line_conductor_6;
	conductor_N overhead_line_conductor_6;
	spacing line_spacing_18;
}

object line_configuration {
	name line_configuration_31;
	conductor_B underground_line_conductor_7;
	conductor_N underground_line_conductor_7;
	spacing line_spacing_20;
}

object line_configuration {
	name line_configuration_32;
	conductor_A overhead_line_conductor_8;
	conductor_B overhead_line_conductor_8;
	conductor_C overhead_line_conductor_8;
	conductor_N overhead_line_conductor_8;
	spacing line_spacing_18;
}

object line_configuration {
	name line_configuration_33;
	conductor_A underground_line_conductor_9;
	conductor_B underground_line_conductor_9;
	conductor_C underground_line_conductor_9;
	conductor_N underground_line_conductor_9;
	spacing line_spacing_18;
}

object line_configuration {
	name line_configuration_34;
	conductor_C underground_line_conductor_7;
	conductor_N underground_line_conductor_7;
	spacing line_spacing_19;
}

object line_configuration {
	name line_configuration_35;
	conductor_B overhead_line_conductor_2;
	conductor_N overhead_line_conductor_2;
	spacing line_spacing_20;
}

object line_configuration {
	name line_configuration_36;
	conductor_C overhead_line_conductor_4;
	conductor_N overhead_line_conductor_4;
	spacing line_spacing_19;
}

object line_configuration {
	name line_configuration_37;
	conductor_B overhead_line_conductor_2;
	conductor_C overhead_line_conductor_2;
	conductor_N overhead_line_conductor_2;
	spacing line_spacing_21;
}

object line_configuration {
	name line_configuration_38;
	conductor_A underground_line_conductor_7;
	conductor_B underground_line_conductor_7;
	conductor_C underground_line_conductor_7;
	conductor_N underground_line_conductor_7;
	spacing line_spacing_18;
}

object line_configuration {
	name line_configuration_39;
	conductor_A overhead_line_conductor_2;
	conductor_B overhead_line_conductor_2;
	conductor_C overhead_line_conductor_2;
	conductor_N overhead_line_conductor_2;
	spacing line_spacing_18;
}

object line_configuration {
	name line_configuration_40;
	conductor_A overhead_line_conductor_10;
	conductor_B overhead_line_conductor_10;
	conductor_C overhead_line_conductor_10;
	conductor_N overhead_line_conductor_10;
	spacing line_spacing_18;
}

object line_configuration {
	name line_configuration_41;
	conductor_A overhead_line_conductor_11;
	conductor_N overhead_line_conductor_11;
	spacing line_spacing_17;
}

object line_configuration {
	name line_configuration_42;
	conductor_A overhead_line_conductor_11;
	conductor_N overhead_line_conductor_11;
	spacing line_spacing_17;
}

object line_configuration {
	name line_configuration_43;
	conductor_B overhead_line_conductor_2;
	conductor_N overhead_line_conductor_2;
	spacing line_spacing_20;
}

object line_configuration {
	name line_configuration_44;
	conductor_A overhead_line_conductor_2;
	conductor_B overhead_line_conductor_2;
	conductor_N overhead_line_conductor_2;
	spacing line_spacing_22;
}

object line_configuration {
	name line_configuration_45;
	conductor_A overhead_line_conductor_12;
	conductor_B overhead_line_conductor_12;
	conductor_C overhead_line_conductor_12;
	conductor_N overhead_line_conductor_12;
	spacing line_spacing_18;
}

object line_configuration {
	name line_configuration_46;
	conductor_A overhead_line_conductor_12;
	conductor_B overhead_line_conductor_12;
	conductor_C overhead_line_conductor_12;
	conductor_N overhead_line_conductor_12;
	spacing line_spacing_18;
}

object line_configuration {
	name line_configuration_47;
	conductor_A overhead_line_conductor_11;
	conductor_C overhead_line_conductor_11;
	conductor_N overhead_line_conductor_11;
	spacing line_spacing_23;
}

object line_configuration {
	name line_configuration_48;
	conductor_C overhead_line_conductor_4;
	conductor_N overhead_line_conductor_4;
	spacing line_spacing_19;
}

object line_configuration {
	name line_configuration_49;
	conductor_C overhead_line_conductor_4;
	conductor_N overhead_line_conductor_4;
	spacing line_spacing_19;
}

object line_configuration {
	name line_configuration_50;
	conductor_B overhead_line_conductor_5;
	conductor_N overhead_line_conductor_5;
	spacing line_spacing_20;
}

object line_configuration {
	name line_configuration_51;
	conductor_B overhead_line_conductor_10;
	conductor_N overhead_line_conductor_10;
	spacing line_spacing_20;
}

object line_configuration {
	name line_configuration_52;
	conductor_A overhead_line_conductor_2;
	conductor_B overhead_line_conductor_2;
	conductor_C overhead_line_conductor_2;
	conductor_N overhead_line_conductor_2;
	spacing line_spacing_18;
}

object line_configuration {
	name line_configuration_53;
	conductor_A overhead_line_conductor_6;
	conductor_B overhead_line_conductor_6;
	conductor_C overhead_line_conductor_6;
	conductor_N overhead_line_conductor_6;
	spacing line_spacing_18;
}

object line_configuration {
	name line_configuration_54;
	conductor_A overhead_line_conductor_11;
	conductor_N overhead_line_conductor_11;
	spacing line_spacing_17;
}

object line_configuration {
	name line_configuration_55;
	conductor_A overhead_line_conductor_11;
	conductor_N overhead_line_conductor_11;
	spacing line_spacing_17;
}

object line_configuration {
	name line_configuration_56;
	conductor_B overhead_line_conductor_11;
	conductor_N overhead_line_conductor_11;
	spacing line_spacing_20;
}

object line_configuration {
	name line_configuration_57;
	conductor_A overhead_line_conductor_2;
	conductor_C overhead_line_conductor_2;
	conductor_N overhead_line_conductor_2;
	spacing line_spacing_23;
}

object line_configuration {
	name line_configuration_58;
	conductor_A overhead_line_conductor_5;
	conductor_B overhead_line_conductor_5;
	conductor_C overhead_line_conductor_5;
	conductor_N overhead_line_conductor_5;
	spacing line_spacing_18;
}

object line_configuration {
	name line_configuration_59;
	conductor_B overhead_line_conductor_2;
	conductor_N overhead_line_conductor_2;
	spacing line_spacing_20;
}

object line_configuration {
	name line_configuration_60;
	conductor_C underground_line_conductor_13;
	conductor_N underground_line_conductor_13;
	spacing line_spacing_19;
}

object line_configuration {
	name line_configuration_61;
	conductor_B overhead_line_conductor_4;
	conductor_N overhead_line_conductor_4;
	spacing line_spacing_20;
}

object line_configuration {
	name line_configuration_62;
	conductor_A overhead_line_conductor_2;
	conductor_N overhead_line_conductor_2;
	spacing line_spacing_17;
}

object line_configuration {
	name line_configuration_63;
	conductor_C overhead_line_conductor_5;
	conductor_N overhead_line_conductor_5;
	spacing line_spacing_19;
}

object line_configuration {
	name line_configuration_64;
	conductor_A overhead_line_conductor_4;
	conductor_N overhead_line_conductor_4;
	spacing line_spacing_17;
}

object line_spacing {
	name line_spacing_17;
	distance_AN 0.0 in;
}

object line_spacing {
	name line_spacing_18;
	distance_AB 0.0 in;
	distance_BC 0.0 in;
	distance_AC 0.0 in;
	distance_AN 0.0 in;
	distance_BN 0.0 in;
	distance_CN 0.0 in;
}

object line_spacing {
	name line_spacing_19;
	distance_CN 0.0 in;
}

object line_spacing {
	name line_spacing_20;
	distance_BN 0.0 in;
}

object line_spacing {
	name line_spacing_21;
	distance_BC 0.0 in;
	distance_BN 0.0 in;
	distance_CN 0.0 in;
}

object line_spacing {
	name line_spacing_22;
	distance_AB 0.0 in;
	distance_AN 0.0 in;
	distance_BN 0.0 in;
}

object line_spacing {
	name line_spacing_23;
	distance_AC 0.0 in;
	distance_AN 0.0 in;
	distance_CN 0.0 in;
}

object overhead_line_conductor {
	name overhead_line_conductor_2;
	rating.summer.continuous 180.0;
	geometric_mean_radius 0.00418 ft;
	resistance 1.62570;
}

object overhead_line_conductor {
	name overhead_line_conductor_3;
	rating.summer.continuous 533.0;
	geometric_mean_radius 0.02280 ft;
	resistance 0.25800;
}

object overhead_line_conductor {
	name overhead_line_conductor_4;
	rating.summer.continuous 149.0;
	geometric_mean_radius 0.00663 ft;
	resistance 1.50000;
}

object overhead_line_conductor {
	name overhead_line_conductor_5;
	rating.summer.continuous 270.0;
	geometric_mean_radius 0.01350 ft;
	resistance 0.13200;
}

object overhead_line_conductor {
	name overhead_line_conductor_6;
	rating.summer.continuous 663.0;
	geometric_mean_radius 0.02710 ft;
	resistance 0.03690;
}

object overhead_line_conductor {
	name overhead_line_conductor_8;
	rating.summer.continuous 530.0;
	geometric_mean_radius 0.02300 ft;
	resistance 0.30300;
}

object overhead_line_conductor {
	name overhead_line_conductor_10;
	rating.summer.continuous 300.0;
	geometric_mean_radius 0.00600 ft;
	resistance 0.63800;
}

object overhead_line_conductor {
	name overhead_line_conductor_11;
	rating.summer.continuous 197.0;
	geometric_mean_radius 0.00883 ft;
	resistance 1.51970;
}

object overhead_line_conductor {
	name overhead_line_conductor_12;
	rating.summer.continuous 388.0;
	geometric_mean_radius 0.02020 ft;
	resistance 0.06570;
}

object overhead_line_conductor {
	name overhead_line_conductor_14;
	rating.summer.continuous 256.0;
	geometric_mean_radius 0.01200 ft;
	resistance 0.16600;
}

object overhead_line_conductor {
	name overhead_line_conductor_15;
	rating.summer.continuous 360.0;
	geometric_mean_radius 0.01033 ft;
	resistance 0.47600;
}

object overhead_line_conductor {
	name overhead_line_conductor_16;
	rating.summer.continuous 204.0;
	geometric_mean_radius 0.00836 ft;
	resistance 0.94500;
}

object transformer_configuration {
	name transformer_configuration_1101;
	connect_type SINGLE_PHASE_CENTER_TAPPED;
	install_type POLETOP;
	primary_voltage 7200 V;
	secondary_voltage 120 V;
	power_rating 25.0;
	powerA_rating 25.0;
	resistance 0.00600;
	reactance 0.00400;
	shunt_impedance 339.610+320.666j;
}

object transformer_configuration {
	name transformer_configuration_1102;
	connect_type SINGLE_PHASE_CENTER_TAPPED;
	install_type POLETOP;
	primary_voltage 7200 V;
	secondary_voltage 120 V;
	power_rating 5;
	powerA_rating 5;
	resistance 0.015;
	reactance 0.01;
	shunt_impedance 297.890+294.716j;
}

object transformer_configuration {
	name transformer_configuration_1103;
	connect_type SINGLE_PHASE_CENTER_TAPPED;
	install_type POLETOP;
	primary_voltage 7200 V;
	secondary_voltage 120 V;
	power_rating 50.0;
	powerA_rating 50.0;
	resistance 0.00300;
	reactance 0.00200;
	shunt_impedance 391.760+383.331j;
}

object transformer_configuration {
	name transformer_configuration_1104;
	connect_type SINGLE_PHASE_CENTER_TAPPED;
	install_type PADMOUNT;
	primary_voltage 7200 V;
	secondary_voltage 120 V;
	power_rating 25.0;
	powerA_rating 25.0;
	resistance 0.00600;
	reactance 0.00400;
	shunt_impedance 339.610+355.690j;
}

object transformer_configuration {
	name transformer_configuration_1105;
	connect_type SINGLE_PHASE_CENTER_TAPPED;
	install_type PADMOUNT;
	primary_voltage 7200 V;
	secondary_voltage 120 V;
	power_rating 50.0;
	powerA_rating 50.0;
	resistance 0.00300;
	reactance 0.00200;
	shunt_impedance 391.760+445.260j;
}

object transformer_configuration {
	name transformer_configuration_1106;
	connect_type SINGLE_PHASE_CENTER_TAPPED;
	install_type POLETOP;
	primary_voltage 7200 V;
	secondary_voltage 120 V;
	power_rating 175.0;
	powerA_rating 175.0;
	resistance 0.00086;
	reactance 0.00057;
	shunt_impedance 652.510+545.642j;
}

object transformer_configuration {
	name transformer_configuration_1107;
	connect_type SINGLE_PHASE_CENTER_TAPPED;
	install_type POLETOP;
	primary_voltage 7200 V;
	secondary_voltage 120 V;
	power_rating 37.5;
	powerA_rating 37.5;
	resistance 0.00400;
	reactance 0.00267;
	shunt_impedance 365.685+439.690j;
}

object transformer_configuration {
	name transformer_configuration_1108;
	connect_type SINGLE_PHASE_CENTER_TAPPED;
	install_type PADMOUNT;
	primary_voltage 7200 V;
	secondary_voltage 120 V;
	power_rating 15.0;
	powerA_rating 15.0;
	resistance 0.01000;
	reactance 0.00667;
	shunt_impedance 318.750+343.542j;
}

object transformer_configuration {
	name transformer_configuration_1109;
	connect_type SINGLE_PHASE_CENTER_TAPPED;
	install_type POLETOP;
	primary_voltage 7200 V;
	secondary_voltage 120 V;
	power_rating 10.0;
	powerA_rating 10.0;
	resistance 0.015;
	reactance 0.01;
	shunt_impedance 308.320+291.396j;
}

object transformer_configuration {
	name transformer_configuration_1110;
	connect_type SINGLE_PHASE_CENTER_TAPPED;
	install_type POLETOP;
	primary_voltage 7200 V;
	secondary_voltage 120 V;
	power_rating 15.0;
	powerA_rating 15.0;
	resistance 0.01000;
	reactance 0.00667;
	shunt_impedance 318.750+314.733j;
}

object transformer_configuration {
	name transformer_configuration_1111;
	connect_type SINGLE_PHASE_CENTER_TAPPED;
	install_type POLETOP;
	primary_voltage 7200 V;
	secondary_voltage 120 V;
	power_rating 100.0;
	powerA_rating 100.0;
	resistance 0.00150;
	reactance 0.00100;
	shunt_impedance 496.060+510.921j;
}

object transformer_configuration {
	name transformer_configuration_1112;
	connect_type SINGLE_PHASE_CENTER_TAPPED;
	install_type POLETOP;
	primary_voltage 7200 V;
	secondary_voltage 120 V;
	power_rating 30.0;
	powerA_rating 30.0;
	resistance 0.00500;
	reactance 0.00333;
	shunt_impedance 350.040+360.407j;
}

object transformer_configuration {
	name transformer_configuration_1113;
	connect_type SINGLE_PHASE_CENTER_TAPPED;
	install_type POLETOP;
	primary_voltage 7200 V;
	secondary_voltage 120 V;
	power_rating 75.0;
	powerA_rating 75.0;
	resistance 0.00200;
	reactance 0.00133;
	shunt_impedance 443.910+497.214j;
}

object transformer_configuration {
	name transformer_configuration_1114;
	connect_type SINGLE_PHASE_CENTER_TAPPED;
	install_type PADMOUNT;
	primary_voltage 7200 V;
	secondary_voltage 120 V;
	power_rating 10.0;
	powerA_rating 10.0;
	resistance 0.015;
	reactance 0.01;
	shunt_impedance 308.320+341.932j;
}

object transformer_configuration {
	name transformer_configuration_1115;
	connect_type SINGLE_PHASE_CENTER_TAPPED;
	install_type PADMOUNT;
	primary_voltage 7200 V;
	secondary_voltage 120 V;
	power_rating 125.0;
	powerA_rating 125.0;
	resistance 0.00120;
	reactance 0.00080;
	shunt_impedance 548.210+528.546j;
}

object transformer_configuration {
	name transformer_configuration_1116;
	connect_type SINGLE_PHASE_CENTER_TAPPED;
	install_type PADMOUNT;
	primary_voltage 7200 V;
	secondary_voltage 120 V;
	power_rating 100.0;
	powerA_rating 100.0;
	resistance 0.00150;
	reactance 0.00100;
	shunt_impedance 496.060+489.615j;
}

object transformer_configuration {
	name transformer_configuration_1117;
	connect_type SINGLE_PHASE_CENTER_TAPPED;
	install_type PADMOUNT;
	primary_voltage 7200 V;
	secondary_voltage 120 V;
	power_rating 5;
	powerA_rating 5;
	resistance 0.015;
	reactance 0.01;
	shunt_impedance 297.890+319.747j;
}

object transformer_configuration {
	name transformer_configuration_1118;
	connect_type SINGLE_PHASE_CENTER_TAPPED;
	install_type POLETOP;
	primary_voltage 7200 V;
	secondary_voltage 120 V;
	power_rating 87.5;
	powerA_rating 87.5;
	resistance 0.00171;
	reactance 0.00114;
	shunt_impedance 469.985+475.640j;
}

object transformer_configuration {
	name transformer_configuration_1119;
	connect_type SINGLE_PHASE_CENTER_TAPPED;
	install_type POLETOP;
	primary_voltage 7200 V;
	secondary_voltage 120 V;
	power_rating 5;
	powerB_rating 5;
	resistance 0.015;
	reactance 0.01;
	shunt_impedance 297.890+331.740j;
}

object transformer_configuration {
	name transformer_configuration_1120;
	connect_type SINGLE_PHASE_CENTER_TAPPED;
	install_type POLETOP;
	primary_voltage 7200 V;
	secondary_voltage 120 V;
	power_rating 50.0;
	powerB_rating 50.0;
	resistance 0.00300;
	reactance 0.00200;
	shunt_impedance 391.760+364.855j;
}

object transformer_configuration {
	name transformer_configuration_1121;
	connect_type SINGLE_PHASE_CENTER_TAPPED;
	install_type POLETOP;
	primary_voltage 7200 V;
	secondary_voltage 120 V;
	power_rating 25.0;
	powerB_rating 25.0;
	resistance 0.00600;
	reactance 0.00400;
	shunt_impedance 339.610+355.629j;
}

object transformer_configuration {
	name transformer_configuration_1122;
	connect_type SINGLE_PHASE_CENTER_TAPPED;
	install_type PADMOUNT;
	primary_voltage 7200 V;
	secondary_voltage 120 V;
	power_rating 50.0;
	powerB_rating 50.0;
	resistance 0.00300;
	reactance 0.00200;
	shunt_impedance 391.760+403.056j;
}

object transformer_configuration {
	name transformer_configuration_1123;
	connect_type SINGLE_PHASE_CENTER_TAPPED;
	install_type PADMOUNT;
	primary_voltage 7200 V;
	secondary_voltage 120 V;
	power_rating 25.0;
	powerB_rating 25.0;
	resistance 0.00600;
	reactance 0.00400;
	shunt_impedance 339.610+386.879j;
}

object transformer_configuration {
	name transformer_configuration_1124;
	connect_type SINGLE_PHASE_CENTER_TAPPED;
	install_type POLETOP;
	primary_voltage 7200 V;
	secondary_voltage 120 V;
	power_rating 175.0;
	powerB_rating 175.0;
	resistance 0.00086;
	reactance 0.00057;
	shunt_impedance 652.510+564.715j;
}

object transformer_configuration {
	name transformer_configuration_1125;
	connect_type SINGLE_PHASE_CENTER_TAPPED;
	install_type POLETOP;
	primary_voltage 7200 V;
	secondary_voltage 120 V;
	power_rating 15.0;
	powerB_rating 15.0;
	resistance 0.01000;
	reactance 0.00667;
	shunt_impedance 318.750+318.774j;
}

object transformer_configuration {
	name transformer_configuration_1126;
	connect_type SINGLE_PHASE_CENTER_TAPPED;
	install_type POLETOP;
	primary_voltage 7200 V;
	secondary_voltage 120 V;
	power_rating 37.5;
	powerB_rating 37.5;
	resistance 0.00400;
	reactance 0.00267;
	shunt_impedance 365.685+367.641j;
}

object transformer_configuration {
	name transformer_configuration_1127;
	connect_type SINGLE_PHASE_CENTER_TAPPED;
	install_type POLETOP;
	primary_voltage 7200 V;
	secondary_voltage 120 V;
	power_rating 300.0;
	powerB_rating 300.0;
	resistance 0.00050;
	reactance 0.00033;
	shunt_impedance 913.260+699.383j;
}

object transformer_configuration {
	name transformer_configuration_1128;
	connect_type SINGLE_PHASE_CENTER_TAPPED;
	install_type POLETOP;
	primary_voltage 7200 V;
	secondary_voltage 120 V;
	power_rating 75.0;
	powerB_rating 75.0;
	resistance 0.00200;
	reactance 0.00133;
	shunt_impedance 443.910+499.314j;
}

object transformer_configuration {
	name transformer_configuration_1129;
	connect_type SINGLE_PHASE_CENTER_TAPPED;
	install_type POLETOP;
	primary_voltage 7200 V;
	secondary_voltage 120 V;
	power_rating 125.0;
	powerB_rating 125.0;
	resistance 0.00120;
	reactance 0.00080;
	shunt_impedance 548.210+702.215j;
}

object transformer_configuration {
	name transformer_configuration_1130;
	connect_type SINGLE_PHASE_CENTER_TAPPED;
	install_type POLETOP;
	primary_voltage 7200 V;
	secondary_voltage 120 V;
	power_rating 100.0;
	powerB_rating 100.0;
	resistance 0.00150;
	reactance 0.00100;
	shunt_impedance 496.060+484.542j;
}

object transformer_configuration {
	name transformer_configuration_1131;
	connect_type SINGLE_PHASE_CENTER_TAPPED;
	install_type POLETOP;
	primary_voltage 7200 V;
	secondary_voltage 120 V;
	power_rating 10.0;
	powerB_rating 10.0;
	resistance 0.015;
	reactance 0.01;
	shunt_impedance 308.320+317.170j;
}

object transformer_configuration {
	name transformer_configuration_1132;
	connect_type SINGLE_PHASE_CENTER_TAPPED;
	install_type PADMOUNT;
	primary_voltage 7200 V;
	secondary_voltage 120 V;
	power_rating 5;
	powerB_rating 5;
	resistance 0.015;
	reactance 0.01;
	shunt_impedance 297.890+284.050j;
}

object transformer_configuration {
	name transformer_configuration_1133;
	connect_type SINGLE_PHASE_CENTER_TAPPED;
	install_type PADMOUNT;
	primary_voltage 7200 V;
	secondary_voltage 120 V;
	power_rating 75.0;
	powerB_rating 75.0;
	resistance 0.00200;
	reactance 0.00133;
	shunt_impedance 443.910+460.970j;
}

object transformer_configuration {
	name transformer_configuration_1134;
	connect_type SINGLE_PHASE_CENTER_TAPPED;
	install_type POLETOP;
	primary_voltage 7200 V;
	secondary_voltage 120 V;
	power_rating 30.0;
	powerB_rating 30.0;
	resistance 0.00500;
	reactance 0.00333;
	shunt_impedance 350.040+336.745j;
}

object transformer_configuration {
	name transformer_configuration_1135;
	connect_type SINGLE_PHASE_CENTER_TAPPED;
	install_type POLETOP;
	primary_voltage 7200 V;
	secondary_voltage 120 V;
	power_rating 15.0;
	powerC_rating 15.0;
	resistance 0.01000;
	reactance 0.00667;
	shunt_impedance 318.750+315.506j;
}

object transformer_configuration {
	name transformer_configuration_1136;
	connect_type SINGLE_PHASE_CENTER_TAPPED;
	install_type POLETOP;
	primary_voltage 7200 V;
	secondary_voltage 120 V;
	power_rating 25.0;
	powerC_rating 25.0;
	resistance 0.00600;
	reactance 0.00400;
	shunt_impedance 339.610+394.564j;
}

object transformer_configuration {
	name transformer_configuration_1137;
	connect_type SINGLE_PHASE_CENTER_TAPPED;
	install_type POLETOP;
	primary_voltage 7200 V;
	secondary_voltage 120 V;
	power_rating 100.0;
	powerC_rating 100.0;
	resistance 0.00150;
	reactance 0.00100;
	shunt_impedance 496.060+454.032j;
}

object transformer_configuration {
	name transformer_configuration_1138;
	connect_type SINGLE_PHASE_CENTER_TAPPED;
	install_type POLETOP;
	primary_voltage 7200 V;
	secondary_voltage 120 V;
	power_rating 50.0;
	powerC_rating 50.0;
	resistance 0.00300;
	reactance 0.00200;
	shunt_impedance 391.760+369.199j;
}

object transformer_configuration {
	name transformer_configuration_1139;
	connect_type SINGLE_PHASE_CENTER_TAPPED;
	install_type PADMOUNT;
	primary_voltage 7200 V;
	secondary_voltage 120 V;
	power_rating 50.0;
	powerC_rating 50.0;
	resistance 0.00300;
	reactance 0.00200;
	shunt_impedance 391.760+388.786j;
}

object transformer_configuration {
	name transformer_configuration_1140;
	connect_type SINGLE_PHASE_CENTER_TAPPED;
	install_type PADMOUNT;
	primary_voltage 7200 V;
	secondary_voltage 120 V;
	power_rating 37.5;
	powerC_rating 37.5;
	resistance 0.00400;
	reactance 0.00267;
	shunt_impedance 365.685+360.841j;
}

object transformer_configuration {
	name transformer_configuration_1141;
	connect_type SINGLE_PHASE_CENTER_TAPPED;
	install_type PADMOUNT;
	primary_voltage 7200 V;
	secondary_voltage 120 V;
	power_rating 5;
	powerC_rating 5;
	resistance 0.015;
	reactance 0.01;
	shunt_impedance 297.890+340.766j;
}

object transformer_configuration {
	name transformer_configuration_1142;
	connect_type SINGLE_PHASE_CENTER_TAPPED;
	install_type POLETOP;
	primary_voltage 7200 V;
	secondary_voltage 120 V;
	power_rating 175.0;
	powerC_rating 175.0;
	resistance 0.00086;
	reactance 0.00057;
	shunt_impedance 652.510+785.052j;
}

object transformer_configuration {
	name transformer_configuration_1143;
	connect_type SINGLE_PHASE_CENTER_TAPPED;
	install_type POLETOP;
	primary_voltage 7200 V;
	secondary_voltage 120 V;
	power_rating 5;
	powerC_rating 5;
	resistance 0.015;
	reactance 0.01;
	shunt_impedance 297.890+268.750j;
}

object transformer_configuration {
	name transformer_configuration_1144;
	connect_type SINGLE_PHASE_CENTER_TAPPED;
	install_type POLETOP;
	primary_voltage 7200 V;
	secondary_voltage 120 V;
	power_rating 200.0;
	powerC_rating 200.0;
	resistance 0.00075;
	reactance 0.00050;
	shunt_impedance 704.660+659.490j;
}

object transformer_configuration {
	name transformer_configuration_1145;
	connect_type SINGLE_PHASE_CENTER_TAPPED;
	install_type POLETOP;
	primary_voltage 7200 V;
	secondary_voltage 120 V;
	power_rating 150.0;
	powerC_rating 150.0;
	resistance 0.00100;
	reactance 0.00067;
	shunt_impedance 600.360+631.607j;
}

object transformer_configuration {
	name transformer_configuration_1146;
	connect_type SINGLE_PHASE_CENTER_TAPPED;
	install_type POLETOP;
	primary_voltage 7200 V;
	secondary_voltage 120 V;
	power_rating 75.0;
	powerC_rating 75.0;
	resistance 0.00200;
	reactance 0.00133;
	shunt_impedance 443.910+427.010j;
}

object transformer_configuration {
	name transformer_configuration_1147;
	connect_type SINGLE_PHASE_CENTER_TAPPED;
	install_type POLETOP;
	primary_voltage 7200 V;
	secondary_voltage 120 V;
	power_rating 125.0;
	powerC_rating 125.0;
	resistance 0.00120;
	reactance 0.00080;
	shunt_impedance 548.210+657.460j;
}

object transformer_configuration {
	name transformer_configuration_1148;
	connect_type SINGLE_PHASE_CENTER_TAPPED;
	install_type PADMOUNT;
	primary_voltage 7200 V;
	secondary_voltage 120 V;
	power_rating 25.0;
	powerC_rating 25.0;
	resistance 0.00600;
	reactance 0.00400;
	shunt_impedance 339.610+395.166j;
}

object transformer_configuration {
	name transformer_configuration_1149;
	connect_type SINGLE_PHASE_CENTER_TAPPED;
	install_type PADMOUNT;
	primary_voltage 7200 V;
	secondary_voltage 120 V;
	power_rating 15.0;
	powerC_rating 15.0;
	resistance 0.01000;
	reactance 0.00667;
	shunt_impedance 318.750+336.569j;
}

object transformer_configuration {
	name transformer_configuration_1150;
	connect_type SINGLE_PHASE_CENTER_TAPPED;
	install_type POLETOP;
	primary_voltage 7200 V;
	secondary_voltage 120 V;
	power_rating 87.5;
	powerC_rating 87.5;
	resistance 0.00171;
	reactance 0.00114;
	shunt_impedance 469.985+496.475j;
}

object transformer_configuration {
	name transformer_configuration_1151;
	connect_type SINGLE_PHASE_CENTER_TAPPED;
	install_type POLETOP;
	primary_voltage 7200 V;
	secondary_voltage 120 V;
	power_rating 300.0;
	powerC_rating 300.0;
	resistance 0.00050;
	reactance 0.00033;
	shunt_impedance 913.260+882.356j;
}

object transformer_configuration {
	name transformer_configuration_1344;
	connect_type WYE_WYE;
	install_type POLETOP;
	primary_voltage 12470.000 V;
	secondary_voltage 480 V;
	power_rating 525.0;
	powerA_rating 175.0;
	powerB_rating 175.0;
	powerC_rating 175.0;
	resistance 0.00019;
	reactance 0.00095;
	shunt_impedance 1382.610+1488.193j;
}

object transformer_configuration {
	name transformer_configuration_1345;
	connect_type WYE_WYE;
	install_type POLETOP;
	primary_voltage 12470.000 V;
	secondary_voltage 480 V;
	power_rating 300.0;
	powerA_rating 100.0;
	powerB_rating 100.0;
	powerC_rating 100.0;
	resistance 0.00033;
	reactance 0.00167;
	shunt_impedance 913.260+1016.225j;
}

object transformer_configuration {
	name transformer_configuration_1346;
	connect_type WYE_WYE;
	install_type POLETOP;
	primary_voltage 12470.000 V;
	secondary_voltage 480 V;
	power_rating 55.0;
	powerA_rating 15.0;
	powerB_rating 25.0;
	powerC_rating 15.0;
	resistance 0.00182;
	reactance 0.00909;
	shunt_impedance 402.190+407.884j;
}

object transformer_configuration {
	name transformer_configuration_1347;
	connect_type WYE_WYE;
	install_type POLETOP;
	primary_voltage 12470.000 V;
	secondary_voltage 480 V;
	power_rating 150.0;
	powerA_rating 50.0;
	powerB_rating 50.0;
	powerC_rating 50.0;
	resistance 0.00067;
	reactance 0.00333;
	shunt_impedance 600.360+716.117j;
}

object transformer_configuration {
	name transformer_configuration_1348;
	connect_type WYE_WYE;
	install_type POLETOP;
	primary_voltage 12470.000 V;
	secondary_voltage 480 V;
	power_rating 50.0;
	powerC_rating 50.0;
	resistance 0.00200;
	reactance 0.01000;
	shunt_impedance 391.760+418.033j;
}

object transformer_configuration {
	name transformer_configuration_1349;
	connect_type WYE_WYE;
	install_type PADMOUNT;
	primary_voltage 12470.000 V;
	secondary_voltage 480 V;
	power_rating 100.0;
	powerA_rating 25.0;
	powerB_rating 50.0;
	powerC_rating 25.0;
	resistance 0.00100;
	reactance 0.00500;
	shunt_impedance 496.060+490.598j;
}

object transformer_configuration {
	name transformer_configuration_1350;
	connect_type WYE_WYE;
	install_type PADMOUNT;
	primary_voltage 12470.000 V;
	secondary_voltage 480 V;