//Input feeder information for Taxonomy Feeders with different cases.
//Started on 10/21/09. This version created 29-Sep-2017 11:16:05.
// This version was created to perform FY11 Department of Energy
// analysis on the benefits of the SGIG grant projects.

clock {
	timezone CST+6CDT;
	starttime '2009-01-01 00:00:00';
	stoptime '2010-01-02 00:00:00';
}

#include "appliance_schedules.glm";
#include "water_and_setpoint_schedule_v5.glm";
#include "commercial_schedules.glm";
#set minimum_timestep=4;
#set profiler=1;
#set relax_naming_rules=1;

module tape;

module climate;

module residential {
	implicit_enduses NONE;
};

module powerflow {
	solver_method NR;
	NR_iteration_limit 50;
	lu_solver "KLU_x64";
};

class player {
	double value;
};

object climate {
	name "IL-Chicago";
	tmyfile "IL-Chicago.tmy2";
	interpolate QUADRATIC;
}

object regulator_configuration {
	name feeder_reg_cfg;
	Control OUTPUT_VOLTAGE;
	band_center 14975.0;
	band_width 240;
	connect_type WYE_WYE;
	time_delay 30;
	raise_taps 16;
	lower_taps 16;
	regulation 0.10;
	tap_pos_A 0;
	tap_pos_B 0;
	tap_pos_C 0;
}

object line_configuration {
	name line_configuration_21;
	conductor_A underground_line_conductor_2;
	conductor_N underground_line_conductor_2;
	spacing line_spacing_14;
}

object line_configuration {
	name line_configuration_22;
	conductor_A overhead_line_conductor_3;
	conductor_B overhead_line_conductor_3;
	conductor_C overhead_line_conductor_3;
	conductor_N overhead_line_conductor_3;
	spacing line_spacing_15;
}

object line_configuration {
	name line_configuration_23;
	conductor_A underground_line_conductor_4;
	conductor_N underground_line_conductor_4;
	spacing line_spacing_14;
}

object line_configuration {
	name line_configuration_24;
	conductor_A overhead_line_conductor_3;
	conductor_B overhead_line_conductor_3;
	conductor_C overhead_line_conductor_3;
	conductor_N overhead_line_conductor_3;
	spacing line_spacing_15;
}

object line_configuration {
	name line_configuration_25;
	conductor_A underground_line_conductor_5;
	conductor_B underground_line_conductor_5;
	conductor_C underground_line_conductor_5;
	conductor_N underground_line_conductor_5;
	spacing line_spacing_16;
}

object line_configuration {
	name line_configuration_26;
	conductor_A overhead_line_conductor_6;
	conductor_B overhead_line_conductor_6;
	conductor_C overhead_line_conductor_6;
	conductor_N overhead_line_conductor_6;
	spacing line_spacing_16;
}

object line_configuration {
	name line_configuration_27;
	conductor_B overhead_line_conductor_7;
	conductor_N overhead_line_conductor_7;
	spacing line_spacing_17;
}

object line_configuration {
	name line_configuration_28;
	conductor_C underground_line_conductor_2;
	conductor_N underground_line_conductor_2;
	spacing line_spacing_18;
}

object line_configuration {
	name line_configuration_29;
	conductor_A overhead_line_conductor_7;
	conductor_B overhead_line_conductor_7;
	conductor_C overhead_line_conductor_7;
	conductor_N overhead_line_conductor_7;
	spacing line_spacing_15;
}

object line_configuration {
	name line_configuration_30;
	conductor_B underground_line_conductor_4;
	conductor_N underground_line_conductor_4;
	spacing line_spacing_19;
}

object line_configuration {
	name line_configuration_31;
	conductor_C overhead_line_conductor_7;
	conductor_N overhead_line_conductor_7;
	spacing line_spacing_20;
}

object line_configuration {
	name line_configuration_32;
	conductor_B underground_line_conductor_2;
	conductor_N underground_line_conductor_2;
	spacing line_spacing_19;
}

object line_configuration {
	name line_configuration_33;
	conductor_A underground_line_conductor_2;
	conductor_N underground_line_conductor_2;
	spacing line_spacing_14;
}

object line_configuration {
	name line_configuration_34;
	conductor_A overhead_line_conductor_8;
	conductor_B overhead_line_conductor_8;
	conductor_C overhead_line_conductor_8;
	conductor_N overhead_line_conductor_8;
	spacing line_spacing_15;
}

object line_configuration {
	name line_configuration_35;
	conductor_A overhead_line_conductor_8;
	conductor_B overhead_line_conductor_8;
	conductor_C overhead_line_conductor_8;
	conductor_N overhead_line_conductor_8;
	spacing line_spacing_15;
}

object line_configuration {
	name line_configuration_36;
	conductor_A underground_line_conductor_4;
	conductor_B underground_line_conductor_4;
	conductor_C underground_line_conductor_4;
	conductor_N underground_line_conductor_4;
	spacing line_spacing_16;
}

object line_configuration {
	name line_configuration_37;
	conductor_C underground_line_conductor_4;
	conductor_N underground_line_conductor_4;
	spacing line_spacing_18;
}

object line_configuration {
	name line_configuration_38;
	conductor_C overhead_line_conductor_9;
	conductor_N overhead_line_conductor_9;
	spacing line_spacing_20;
}

object line_configuration {
	name line_configuration_39;
	conductor_C underground_line_conductor_2;
	conductor_N underground_line_conductor_2;
	spacing line_spacing_18;
}

object line_configuration {
	name line_configuration_40;
	conductor_A overhead_line_conductor_10;
	conductor_B overhead_line_conductor_10;
	conductor_C overhead_line_conductor_10;
	conductor_N overhead_line_conductor_10;
	spacing line_spacing_15;
}

object line_configuration {
	name line_configuration_41;
	conductor_A overhead_line_conductor_7;
	conductor_B overhead_line_conductor_7;
	conductor_C overhead_line_conductor_7;
	conductor_N overhead_line_conductor_7;
	spacing line_spacing_15;
}

object line_configuration {
	name line_configuration_42;
	conductor_C overhead_line_conductor_11;
	conductor_N overhead_line_conductor_11;
	spacing line_spacing_20;
}

object line_configuration {
	name line_configuration_43;
	conductor_C overhead_line_conductor_10;
	conductor_N overhead_line_conductor_10;
	spacing line_spacing_20;
}

object line_configuration {
	name line_configuration_44;
	conductor_C overhead_line_conductor_11;
	conductor_N overhead_line_conductor_11;
	spacing line_spacing_20;
}

object line_configuration {
	name line_configuration_45;
	conductor_B overhead_line_conductor_8;
	conductor_N overhead_line_conductor_8;
	spacing line_spacing_17;
}

object line_configuration {
	name line_configuration_46;
	conductor_A overhead_line_conductor_8;
	conductor_B overhead_line_conductor_8;
	conductor_C overhead_line_conductor_8;
	conductor_N overhead_line_conductor_8;
	spacing line_spacing_15;
}

object line_configuration {
	name line_configuration_47;
	conductor_A overhead_line_conductor_6;
	conductor_B overhead_line_conductor_6;
	conductor_C overhead_line_conductor_6;
	conductor_N overhead_line_conductor_6;
	spacing line_spacing_15;
}

object line_configuration {
	name line_configuration_48;
	conductor_B overhead_line_conductor_6;
	conductor_N overhead_line_conductor_6;
	spacing line_spacing_17;
}

object line_configuration {
	name line_configuration_49;
	conductor_B overhead_line_conductor_10;
	conductor_N overhead_line_conductor_10;
	spacing line_spacing_17;
}

object line_configuration {
	name line_configuration_50;
	conductor_C overhead_line_conductor_12;
	conductor_N overhead_line_conductor_12;
	spacing line_spacing_20;
}

object line_configuration {
	name line_configuration_51;
	conductor_A overhead_line_conductor_3;
	conductor_B overhead_line_conductor_3;
	conductor_C overhead_line_conductor_3;
	conductor_N overhead_line_conductor_3;
	spacing line_spacing_15;
}

object line_configuration {
	name line_configuration_52;
	conductor_A overhead_line_conductor_6;
	conductor_B overhead_line_conductor_6;
	conductor_C overhead_line_conductor_6;
	conductor_N overhead_line_conductor_6;
	spacing line_spacing_15;
}

object line_configuration {
	name line_configuration_53;
	conductor_A overhead_line_conductor_13;
	conductor_B overhead_line_conductor_13;
	conductor_C overhead_line_conductor_13;
	conductor_N overhead_line_conductor_13;
	spacing line_spacing_15;
}

object line_spacing {
	name line_spacing_14;
	distance_AN 6.0 in;
}

object line_spacing {
	name line_spacing_15;
	distance_AB 59.0 in;
	distance_BC 59.0 in;
	distance_AC 59.0 in;
	distance_AN 59.0 in;
	distance_BN 59.0 in;
	distance_CN 59.0 in;
}

object line_spacing {
	name line_spacing_16;
	distance_AB 6.0 in;
	distance_BC 6.0 in;
	distance_AC 6.0 in;
	distance_AN 6.0 in;
	distance_BN 6.0 in;
	distance_CN 6.0 in;
}

object line_spacing {
	name line_spacing_17;
	distance_BN 53.0 in;
}

object line_spacing {
	name line_spacing_18;
	distance_CN 6.0 in;
}

object line_spacing {
	name line_spacing_19;
	distance_BN 6.0 in;
}

object line_spacing {
	name line_spacing_20;
	distance_CN 53.0 in;
}

object overhead_line_conductor {
	name overhead_line_conductor_3;
	rating.summer.continuous 530.0;
	geometric_mean_radius 0.02300 ft;
	resistance 0.30300;
}

object overhead_line_conductor {
	name overhead_line_conductor_6;
	rating.summer.continuous 149.0;
	geometric_mean_radius 0.00663 ft;
	resistance 1.50000;
}

object overhead_line_conductor {
	name overhead_line_conductor_7;
	rating.summer.continuous 180.0;
	geometric_mean_radius 0.00418 ft;
	resistance 1.62570;
}

object overhead_line_conductor {
	name overhead_line_conductor_8;
	rating.summer.continuous 360.0;
	geometric_mean_radius 0.01033 ft;
	resistance 0.47600;
}

object overhead_line_conductor {
	name overhead_line_conductor_9;
	rating.summer.continuous 84.0;
	geometric_mean_radius 0.00417 ft;
	resistance 3.84030;
}

object overhead_line_conductor {
	name overhead_line_conductor_10;
	rating.summer.continuous 256.0;
	geometric_mean_radius 0.01200 ft;
	resistance 0.16600;
}

object overhead_line_conductor {
	name overhead_line_conductor_11;
	rating.summer.continuous 105.0;
	geometric_mean_radius 0.00394 ft;
	resistance 3.95941;
}

object overhead_line_conductor {
	name overhead_line_conductor_12;
	rating.summer.continuous 230.0;
	geometric_mean_radius 0.00446 ft;
	resistance 1.04100;
}

object overhead_line_conductor {
	name overhead_line_conductor_13;
	rating.summer.continuous 878.0;
	geometric_mean_radius 0.03280 ft;
	resistance 0.13100;
}

object transformer_configuration {
	name transformer_configuration_1329;
	connect_type SINGLE_PHASE_CENTER_TAPPED;
	install_type PADMOUNT;
	primary_voltage 14376.02 V;
	secondary_voltage 120 V;
	power_rating 125.0;
	powerA_rating 125.0;
	resistance 0.00120;
	reactance 0.00080;
	shunt_impedance 548.210+519.652j;
}

object transformer_configuration {
	name transformer_configuration_1330;
	connect_type SINGLE_PHASE_CENTER_TAPPED;
	install_type POLETOP;
	primary_voltage 14376.02 V;
	secondary_voltage 120 V;
	power_rating 15.0;
	powerA_rating 15.0;
	resistance 0.01000;
	reactance 0.00667;
	shunt_impedance 318.750+277.981j;
}

object transformer_configuration {
	name transformer_configuration_1331;
	connect_type SINGLE_PHASE_CENTER_TAPPED;
	install_type POLETOP;
	primary_voltage 14376.02 V;
	secondary_voltage 120 V;
	power_rating 200.0;
	powerA_rating 200.0;
	resistance 0.00075;
	reactance 0.00050;
	shunt_impedance 704.660+700.698j;
}

object transformer_configuration {
	name transformer_configuration_1332;
	connect_type SINGLE_PHASE_CENTER_TAPPED;
	install_type POLETOP;
	primary_voltage 14376.02 V;
	secondary_voltage 120 V;
	power_rating 10.0;
	powerA_rating 10.0;
	resistance 0.015;
	reactance 0.01;
	shunt_impedance 308.320+301.855j;
}

object transformer_configuration {
	name transformer_configuration_1333;
	connect_type SINGLE_PHASE_CENTER_TAPPED;
	install_type PADMOUNT;
	primary_voltage 14376.02 V;
	secondary_voltage 120 V;
	power_rating 25.0;
	powerA_rating 25.0;
	resistance 0.00600;
	reactance 0.00400;
	shunt_impedance 339.610+346.134j;
}

object transformer_configuration {
	name transformer_configuration_1334;
	connect_type SINGLE_PHASE_CENTER_TAPPED;
	install_type PADMOUNT;
	primary_voltage 14376.02 V;
	secondary_voltage 120 V;
	power_rating 10.0;
	powerA_rating 10.0;
	resistance 0.015;
	reactance 0.01;
	shunt_impedance 308.320+338.916j;
}

object transformer_configuration {
	name transformer_configuration_1335;
	connect_type SINGLE_PHASE_CENTER_TAPPED;
	install_type PADMOUNT;
	primary_voltage 14376.02 V;
	secondary_voltage 120 V;
	power_rating 50.0;
	powerA_rating 50.0;
	resistance 0.00300;
	reactance 0.00200;
	shunt_impedance 391.760+414.335j;
}

object transformer_configuration {
	name transformer_configuration_1336;
	connect_type SINGLE_PHASE_CENTER_TAPPED;
	install_type POLETOP;
	primary_voltage 14376.02 V;
	secondary_voltage 120 V;
	power_rating 50.0;
	powerA_rating 50.0;
	resistance 0.00300;
	reactance 0.00200;
	shunt_impedance 391.760+442.915j;
}

object transformer_configuration {
	name transformer_configuration_1337;
	connect_type SINGLE_PHASE_CENTER_TAPPED;
	install_type PADMOUNT;
	primary_voltage 14376.02 V;
	secondary_voltage 120 V;
	power_rating 175.0;
	powerA_rating 175.0;
	resistance 0.00086;
	reactance 0.00057;
	shunt_impedance 652.510+604.922j;
}

object transformer_configuration {
	name transformer_configuration_1338;
	connect_type SINGLE_PHASE_CENTER_TAPPED;
	install_type PADMOUNT;
	primary_voltage 14376.02 V;
	secondary_voltage 120 V;
	power_rating 500.0;
	powerA_rating 500.0;
	resistance 0.00030;
	reactance 0.00020;
	shunt_impedance 1330.460+1215.432j;
}

object transformer_configuration {
	name transformer_configuration_1339;
	connect_type SINGLE_PHASE_CENTER_TAPPED;
	install_type POLETOP;
	primary_voltage 14376.02 V;
	secondary_voltage 120 V;
	power_rating 25.0;
	powerA_rating 25.0;
	resistance 0.00600;
	reactance 0.00400;
	shunt_impedance 339.610+336.386j;
}

object transformer_configuration {
	name transformer_configuration_1340;
	connect_type SINGLE_PHASE_CENTER_TAPPED;
	install_type POLETOP;
	primary_voltage 14376.02 V;
	secondary_voltage 120 V;
	power_rating 100.0;
	powerA_rating 100.0;
	resistance 0.00150;
	reactance 0.00100;
	shunt_impedance 496.060+564.676j;
}

object transformer_configuration {
	name transformer_configuration_1341;
	connect_type SINGLE_PHASE_CENTER_TAPPED;
	install_type POLETOP;
	primary_voltage 14376.02 V;
	secondary_voltage 120 V;
	power_rating 5.0;
	powerA_rating 5.0;
	resistance 0.015;
	reactance 0.01;
	shunt_impedance 297.890+336.725j;
}

object transformer_configuration {
	name transformer_configuration_1342;
	connect_type SINGLE_PHASE_CENTER_TAPPED;
	install_type POLETOP;
	primary_voltage 14376.02 V;
	secondary_voltage 120 V;
	power_rating 150.0;
	powerA_rating 150.0;
	resistance 0.00100;
	reactance 0.00067;
	shunt_impedance 600.360+592.807j;
}

object transformer_configuration {
	name transformer_configuration_1343;
	connect_type SINGLE_PHASE_CENTER_TAPPED;
	install_type PADMOUNT;
	primary_voltage 14376.02 V;
	secondary_voltage 120 V;
	power_rating 100.0;
	powerA_rating 100.0;
	resistance 0.00150;
	reactance 0.00100;
	shunt_impedance 496.060+466.451j;
}

object transformer_configuration {
	name transformer_configuration_1344;
	connect_type SINGLE_PHASE_CENTER_TAPPED;
	install_type POLETOP;
	primary_voltage 14376.02 V;
	secondary_voltage 120 V;
	power_rating 225.0;
	powerA_rating 225.0;
	resistance 0.00067;
	reactance 0.00044;
	shunt_impedance 756.810+641.726j;
}

object transformer_configuration {
	name transformer_configuration_1345;
	connect_type SINGLE_PHASE_CENTER_TAPPED;
	install_type PADMOUNT;
	primary_voltage 14376.02 V;
	secondary_voltage 120 V;
	power_rating 337.5;
	powerA_rating 337.5;
	resistance 0.00044;
	reactance 0.00030;
	shunt_impedance 991.485+1058.097j;
}

object transformer_configuration {
	name transformer_configuration_1346;
	connect_type SINGLE_PHASE_CENTER_TAPPED;
	install_type PADMOUNT;
	primary_voltage 14376.02 V;
	secondary_voltage 120 V;
	power_rating 75.0;
	powerA_rating 75.0;
	resistance 0.00200;
	reactance 0.00133;
	shunt_impedance 443.910+444.924j;
}

object transformer_configuration {
	name transformer_configuration_1347;
	connect_type SINGLE_PHASE_CENTER_TAPPED;
	install_type PADMOUNT;
	primary_voltage 14376.02 V;
	secondary_voltage 120 V;
	power_rating 15.0;
	powerA_rating 15.0;
	resistance 0.01000;
	reactance 0.00667;
	shunt_impedance 318.750+281.208j;
}

object transformer_configuration {
	name transformer_configuration_1348;
	connect_type SINGLE_PHASE_CENTER_TAPPED;
	install_type PADMOUNT;
	primary_voltage 14376.02 V;
	secondary_voltage 120 V;
	power_rating 5.0;
	powerA_rating 5.0;
	resistance 0.015;
	reactance 0.01;
	shunt_impedance 297.890+287.923j;
}

object transformer_configuration {
	name transformer_configuration_1349;
	connect_type SINGLE_PHASE_CENTER_TAPPED;
	install_type POLETOP;
	primary_voltage 14376.02 V;
	secondary_voltage 120 V;
	power_rating 37.5;
	powerA_rating 37.5;
	resistance 0.00400;
	reactance 0.00267;
	shunt_impedance 365.685+298.785j;
}

object transformer_configuration {
	name transformer_configuration_1350;
	connect_type SINGLE_PHASE_CENTER_TAPPED;
	install_type POLETOP;
	primary_voltage 14376.02 V;
	secondary_voltage 120 V;
	power_rating 125.0;
	powerA_rating 125.0;
	resistance 0.00120;
	reactance 0.00080;
	shunt_impedance 548.210+571.782j;
}

object transformer_configuration {
	name transformer_configuration_1351;
	connect_type SINGLE_PHASE_CENTER_TAPPED;
	install_type PADMOUNT;
	primary_voltage 14376.02 V;
	secondary_voltage 120 V;
	power_rating 225.0;
	powerA_rating 225.0;
	resistance 0.00067;
	reactance 0.00044;
	shunt_impedance 756.810+743.642j;
}

object transformer_configuration {
	name transformer_configuration_1352;
	connect_type SINGLE_PHASE_CENTER_TAPPED;
	install_type POLETOP;
	primary_voltage 14376.02 V;
	secondary_voltage 120 V;
	power_rating 175.0;
	powerA_rating 175.0;
	resistance 0.00086;
	reactance 0.00057;
	shunt_impedance 652.510+758.950j;
}

object transformer_configuration {
	name transformer_configuration_1353;
	connect_type SINGLE_PHASE_CENTER_TAPPED;
	install_type POLETOP;
	primary_voltage 14376.02 V;
	secondary_voltage 120 V;
	power_rating 75.0;
	powerA_rating 75.0;
	resistance 0.00200;
	reactance 0.00133;
	shunt_impedance 443.910+383.564j;
}

object transformer_configuration {
	name transformer_configuration_1354;
	connect_type SINGLE_PHASE_CENTER_TAPPED;
	install_type POLETOP;
	primary_voltage 14376.02 V;
	secondary_voltage 120 V;
	power_rating 250.0;
	powerA_rating 250.0;
	resistance 0.00060;
	reactance 0.00040;
	shunt_impedance 808.960+887.470j;
}

object transformer_configuration {
	name transformer_configuration_1355;
	connect_type SINGLE_PHASE_CENTER_TAPPED;
	install_type POLETOP;
	primary_voltage 14376.02 V;
	secondary_voltage 120 V;
	power_rating 62.5;
	powerA_rating 62.5;
	resistance 0.00240;
	reactance 0.00160;
	shunt_impedance 417.835+423.837j;
}

object transformer_configuration {
	name transformer_configuration_1356;
	connect_type SINGLE_PHASE_CENTER_TAPPED;
	install_type POLETOP;
	primary_voltage 14376.02 V;
	secondary_voltage 120 V;
	power_rating 15.0;
	powerB_rating 15.0;
	resistance 0.01000;
	reactance 0.00667;
	shunt_impedance 318.750+321.383j;
}

object transformer_configuration {
	name transformer_configuration_1357;
	connect_type SINGLE_PHASE_CENTER_TAPPED;
	install_type POLETOP;
	primary_voltage 14376.02 V;
	secondary_voltage 120 V;
	power_rating 10.0;
	powerB_rating 10.0;
	resistance 0.015;
	reactance 0.01;
	shunt_impedance 308.320+330.416j;
}

object transformer_configuration {
	name transformer_configuration_1358;
	connect_type SINGLE_PHASE_CENTER_TAPPED;
	install_type POLETOP;
	primary_voltage 14376.02 V;
	secondary_voltage 120 V;
	power_rating 175.0;
	powerB_rating 175.0;
	resistance 0.00086;
	reactance 0.00057;
	shunt_impedance 652.510+730.386j;
}

object transformer_configuration {
	name transformer_configuration_1359;
	connect_type SINGLE_PHASE_CENTER_TAPPED;
	install_type PADMOUNT;
	primary_voltage 14376.02 V;
	secondary_voltage 120 V;
	power_rating 10.0;
	powerB_rating 10.0;
	resistance 0.015;
	reactance 0.01;
	shunt_impedance 308.320+275.297j;
}

object transformer_configuration {
	name transformer_configuration_1360;
	connect_type SINGLE_PHASE_CENTER_TAPPED;
	install_type PADMOUNT;
	primary_voltage 14376.02 V;
	secondary_voltage 120 V;
	power_rating 500.0;
	powerB_rating 500.0;
	resistance 0.00030;
	reactance 0.00020;
	shunt_impedance 1330.460+1505.935j;
}

object transformer_configuration {
	name transformer_configuration_1361;
	connect_type SINGLE_PHASE_CENTER_TAPPED;
	install_type POLETOP;
	primary_voltage 14376.02 V;
	secondary_voltage 120 V;
	power_rating 25.0;
	powerB_rating 25.0;
	resistance 0.00600;
	reactance 0.00400;
	shunt_impedance 339.610+298.517j;
}

object transformer_configuration {
	name transformer_configuration_1362;
	connect_type SINGLE_PHASE_CENTER_TAPPED;
	install_type POLETOP;
	primary_voltage 14376.02 V;
	secondary_voltage 120 V;
	power_rating 50.0;
	powerB_rating 50.0;
	resistance 0.00300;
	reactance 0.00200;
	shunt_impedance 391.760+349.680j;
}

object transformer_configuration {
	name transformer_configuration_1363;
	connect_type SINGLE_PHASE_CENTER_TAPPED;
	install_type POLETOP;
	primary_voltage 14376.02 V;
	secondary_voltage 120 V;
	power_rating 5.0;
	powerB_rating 5.0;
	resistance 0.015;
	reactance 0.01;
	shunt_impedance 297.890+277.855j;
}

object transformer_configuration {
	name transformer_configuration_1364;
	connect_type SINGLE_PHASE_CENTER_TAPPED;
	install_type POLETOP;
	primary_voltage 14376.02 V;
	secondary_voltage 120 V;
	power_rating 125.0;
	powerB_rating 125.0;
	resistance 0.00120;
	reactance 0.00080;
	shunt_impedance 548.210+588.584j;
}

object transformer_configuration {
	name transformer_configuration_1365;
	connect_type SINGLE_PHASE_CENTER_TAPPED;
	install_type PADMOUNT;
	primary_voltage 14376.02 V;
	secondary_voltage 120 V;
	power_rating 100.0;
	powerB_rating 100.0;
	resistance 0.00150;
	reactance 0.00100;
	shunt_impedance 496.060+442.984j;
}

object transformer_configuration {
	name transformer_configuration_1366;
	connect_type SINGLE_PHASE_CENTER_TAPPED;
	install_type PADMOUNT;
	primary_voltage 14376.02 V;
	secondary_voltage 120 V;
	power_rating 125.0;
	powerB_rating 125.0;
	resistance 0.00120;
	reactance 0.00080;
	shunt_impedance 548.210+566.559j;
}

object transformer_configuration {
	name transformer_configuration_1367;
	connect_type SINGLE_PHASE_CENTER_TAPPED;
	install_type PADMOUNT;
	primary_voltage 14376.02 V;
	secondary_voltage 120 V;
	power_rating 337.5;
	powerB_rating 337.5;
	resistance 0.00044;
	reactance 0.00030;
	shunt_impedance 991.485+1032.323j;
}

object transformer_configuration {
	name transformer_configuration_1368;
	connect_type SINGLE_PHASE_CENTER_TAPPED;
	install_type PADMOUNT;
	primary_voltage 14376.02 V;
	secondary_voltage 120 V;
	power_rating 50.0;
	powerB_rating 50.0;
	resistance 0.00300;
	reactance 0.00200;
	shunt_impedance 391.760+397.798j;
}

object transformer_configuration {
	name transformer_configuration_1369;
	connect_type SINGLE_PHASE_CENTER_TAPPED;
	install_type PADMOUNT;
	primary_voltage 14376.02 V;
	secondary_voltage 120 V;
	power_rating 15.0;
	powerB_rating 15.0;
	resistance 0.01000;
	reactance 0.00667;
	shunt_impedance 318.750+336.427j;
}

object transformer_configuration {
	name transformer_configuration_1370;
	connect_type SINGLE_PHASE_CENTER_TAPPED;
	install_type PADMOUNT;
	primary_voltage 14376.02 V;
	secondary_voltage 120 V;
	power_rating 25.0;
	powerB_rating 25.0;
	resistance 0.00600;
	reactance 0.00400;
	shunt_impedance 339.610+299.779j;
}

object transformer_configuration {
	name transformer_configuration_1371;
	connect_type SINGLE_PHASE_CENTER_TAPPED;
	install_type PADMOUNT;
	primary_voltage 14376.02 V;
	secondary_voltage 120 V;
	power_rating 5.0;
	powerB_rating 5.0;
	resistance 0.015;
	reactance 0.01;
	shunt_impedance 297.890+327.905j;
}

object transformer_configuration {
	name transformer_configuration_1372;
	connect_type SINGLE_PHASE_CENTER_TAPPED;
	install_type POLETOP;
	primary_voltage 14376.02 V;
	secondary_voltage 120 V;
	power_rating 37.5;
	powerB_rating 37.5;
	resistance 0.00400;
	reactance 0.00267;
	shunt_impedance 365.685+369.836j;
}

object transformer_configuration {
	name transformer_configuration_1373;
	connect_type SINGLE_PHASE_CENTER_TAPPED;
	install_type POLETOP;
	primary_voltage 14376.02 V;
	secondary_voltage 120 V;
	power_rating 75.0;
	powerB_rating 75.0;
	resistance 0.00200;
	reactance 0.00133;
	shunt_impedance 443.910+476.318j;
}

object transformer_configuration {
	name transformer_configuration_1374;
	connect_type SINGLE_PHASE_CENTER_TAPPED;
	install_type POLETOP;
	primary_voltage 14376.02 V;
	secondary_voltage 120 V;
	power_rating 150.0;
	powerB_rating 150.0;
	resistance 0.00100;
	reactance 0.00067;
	shunt_impedance 600.360+541.314j;
}

object transformer_configuration {
	name transformer_configuration_1375;
	connect_type SINGLE_PHASE_CENTER_TAPPED;
	install_type PADMOUNT;
	primary_voltage 14376.02 V;
	secondary_voltage 120 V;
	power_rating 75.0;
	powerB_rating 75.0;
	resistance 0.00200;
	reactance 0.00133;
	shunt_impedance 443.910+446.220j;
}

object transformer_configuration {
	name transformer_configuration_1376;
	connect_type SINGLE_PHASE_CENTER_TAPPED;
	install_type PADMOUNT;
	primary_voltage 14376.02 V;
	secondary_voltage 120 V;
	power_rating 150.0;
	powerB_rating 150.0;
	resistance 0.00100;
	reactance 0.00067;
	shunt_impedance 600.360+653.048j;
}

object transformer_configuration {
	name transformer_configuration_1377;
	connect_type SINGLE_PHASE_CENTER_TAPPED;
	install_type POLETOP;
	primary_voltage 14376.02 V;
	secondary_voltage 120 V;
	power_rating 400.0;
	powerB_rating 400.0;
	resistance 0.00038;
	reactance 0.00025;
	shunt_impedance 1121.860+1235.632j;
}

object transformer_configuration {
	name transformer_configuration_1378;
	connect_type SINGLE_PHASE_CENTER_TAPPED;
	install_type POLETOP;
	primary_voltage 14376.02 V;
	secondary_voltage 120 V;
	power_rating 62.5;
	powerB_rating 62.5;
	resistance 0.00240;
	reactance 0.00160;
	shunt_impedance 417.835+414.311j;
}

object transformer_configuration {
	name transformer_configuration_1379;
	connect_type SINGLE_PHASE_CENTER_TAPPED;
	install_type POLETOP;
	primary_voltage 14376.02 V;
	secondary_voltage 120 V;
	power_rating 15.0;
	powerC_rating 15.0;
	resistance 0.01000;
	reactance 0.00667;
	shunt_impedance 318.750+259.669j;
}

object transformer_configuration {
	name transformer_configuration_1380;
	connect_type SINGLE_PHASE_CENTER_TAPPED;
	install_type POLETOP;
	primary_voltage 14376.02 V;
	secondary_voltage 120 V;
	power_rating 10.0;
	powerC_rating 10.0;
	resistance 0.015;
	reactance 0.01;
	shunt_impedance 308.320+274.503j;
}

object transformer_configuration {
	name transformer_configuration_1381;
	connect_type SINGLE_PHASE_CENTER_TAPPED;
	install_type POLETOP;
	primary_voltage 14376.02 V;
	secondary_voltage 120 V;
	power_rating 175.0;
	powerC_rating 175.0;
	resistance 0.00086;
	reactance 0.00057;
	shunt_impedance 652.510+666.776j;
}

object transformer_configuration {
	name transformer_configuration_1382;
	connect_type SINGLE_PHASE_CENTER_TAPPED;
	install_type PADMOUNT;
	primary_voltage 14376.02 V;
	secondary_voltage 120 V;
	power_rating 10.0;
	powerC_rating 10.0;
	resistance 0.015;
	reactance 0.01;
	shunt_impedance 308.320+332.808j;
}

object transformer_configuration {
	name transformer_configuration_1383;
	connect_type SINGLE_PHASE_CENTER_TAPPED;
	install_type PADMOUNT;
	primary_voltage 14376.02 V;
	secondary_voltage 120 V;
	power_rating 50.0;
	powerC_rating 50.0;
	resistance 0.00300;
	reactance 0.00200;
	shunt_impedance 391.760+409.903j;
}

object transformer_configuration {
	name transformer_configuration_1384;
	connect_type SINGLE_PHASE_CENTER_TAPPED;
	install_type PADMOUNT;
	primary_voltage 14376.02 V;
	secondary_voltage 120 V;
	power_rating 500.0;
	powerC_rating 500.0;
	resistance 0.00030;
	reactance 0.00020;
	shunt_impedance 1330.460+1248.952j;
}

object transformer_configuration {
	name transformer_configuration_1385;
	connect_type SINGLE_PHASE_CENTER_TAPPED;
	install_type PADMOUNT;
	primary_voltage 14376.02 V;
	secondary_voltage 120 V;
	power_rating 75.0;
	powerC_rating 75.0;
	resistance 0.00200;
	reactance 0.00133;
	shunt_impedance 443.910+543.541j;
}

object transformer_configuration {
	name transformer_configuration_1386;
	connect_type SINGLE_PHASE_CENTER_TAPPED;
	install_type POLETOP;
	primary_voltage 14376.02 V;
	secondary_voltage 120 V;
	power_rating 25.0;
	powerC_rating 25.0;
	resistance 0.00600;
	reactance 0.00400;
	shunt_impedance 339.610+342.067j;
}

object transformer_configuration {
	name transformer_configuration_1387;
	connect_type SINGLE_PHASE_CENTER_TAPPED;
	install_type POLETOP;
	primary_voltage 14376.02 V;
	secondary_voltage 120 V;
	power_rating 5.0;
	powerC_rating 5.0;
	resistance 0.015;
	reactance 0.01;
	shunt_impedance 297.890+323.673j;
}

object transformer_configuration {
	name transformer_configuration_1388;
	connect_type SINGLE_PHASE_CENTER_TAPPED;
	install_type PADMOUNT;
	primary_voltage 14376.02 V;
	secondary_voltage 120 V;
	power_rating 25.0;
	powerC_rating 25.0;
	resistance 0.00600;
	reactance 0.00400;
	shunt_impedance 339.610+325.493j;
}

object transformer_configuration {
	name transformer_configuration_1389;
	connect_type SINGLE_PHASE_CENTER_TAPPED;
	install_type POLETOP;
	primary_voltage 14376.02 V;
	secondary_voltage 120 V;
	power_rating 100.0;
	powerC_rating 100.0;
	resistance 0.00150;
	reactance 0.00100;
	shunt_impedance 496.060+440.752j;
}

object transformer_configuration {
	name transformer_configuration_1390;
	connect_type SINGLE_PHASE_CENTER_TAPPED;
	install_type POLETOP;
	primary_voltage 14376.02 V;
	secondary_voltage 120 V;
	power_rating 200.0;
	powerC_rating 200.0;
	resistance 0.00075;
	reactance 0.00050;
	shunt_impedance 704.660+752.947j;
}

object transformer_configuration {
	name transformer_configuration_1391;
	connect_type SINGLE_PHASE_CENTER_TAPPED;
	install_type PADMOUNT;
	primary_voltage 14376.02 V;
	secondary_voltage 120 V;
	power_rating 125.0;
	powerC_rating 125.0;
	resistance 0.00120;
	reactance 0.00080;
	shunt_impedance 548.210+605.096j;
}

object transformer_configuration {
	name transformer_configuration_1392;
	connect_type SINGLE_PHASE_CENTER_TAPPED;
	install_type PADMOUNT;
	primary_voltage 14376.02 V;
	secondary_voltage 120 V;
	power_rating 100.0;
	powerC_rating 100.0;
	resistance 0.00150;