//Input feeder information for Taxonomy Feeders with different cases.
//Started on 10/21/09. This version created 29-Sep-2017 11:16:17.
// This version was created to perform FY11 Department of Energy
// analysis on the benefits of the SGIG grant projects.

clock {
	timezone CST+6CDT;
	starttime '2009-01-01 00:00:00';
	stoptime '2010-01-02 00:00:00';
}

#include "appliance_schedules.glm";
#include "water_and_setpoint_schedule_v5.glm";
#include "commercial_schedules.glm";
#set minimum_timestep=4;
#set profiler=1;
#set relax_naming_rules=1;

module tape;

module climate;

module residential {
	implicit_enduses NONE;
};

module powerflow {
	solver_method NR;
	NR_iteration_limit 50;
	lu_solver "KLU_x64";
};

class player {
	double value;
};

object climate {
	name "IL-Chicago";
	tmyfile "IL-Chicago.tmy2";
	interpolate QUADRATIC;
}

object regulator_configuration {
	name feeder_reg_cfg;
	Control OUTPUT_VOLTAGE;
	band_center 20748;
	band_width 332.0;
	connect_type WYE_WYE;
	time_delay 30;
	raise_taps 16;
	lower_taps 16;
	regulation 0.10;
	tap_pos_A 0;
	tap_pos_B 0;
	tap_pos_C 0;
}

object line_configuration {
	name line_configuration_28;
	conductor_C overhead_line_conductor_2;
	conductor_N overhead_line_conductor_2;
	spacing line_spacing_15;
}

object line_configuration {
	name line_configuration_29;
	conductor_C overhead_line_conductor_3;
	conductor_N overhead_line_conductor_3;
	spacing line_spacing_15;
}

object line_configuration {
	name line_configuration_30;
	conductor_A overhead_line_conductor_4;
	conductor_B overhead_line_conductor_4;
	conductor_C overhead_line_conductor_4;
	conductor_N overhead_line_conductor_4;
	spacing line_spacing_16;
}

object line_configuration {
	name line_configuration_31;
	conductor_B overhead_line_conductor_4;
	conductor_N overhead_line_conductor_4;
	spacing line_spacing_17;
}

object line_configuration {
	name line_configuration_32;
	conductor_A overhead_line_conductor_2;
	conductor_B overhead_line_conductor_2;
	conductor_C overhead_line_conductor_2;
	conductor_N overhead_line_conductor_2;
	spacing line_spacing_16;
}

object line_configuration {
	name line_configuration_33;
	conductor_A overhead_line_conductor_5;
	conductor_B overhead_line_conductor_5;
	conductor_C overhead_line_conductor_5;
	conductor_N overhead_line_conductor_5;
	spacing line_spacing_16;
}

object line_configuration {
	name line_configuration_34;
	conductor_A overhead_line_conductor_4;
	conductor_N overhead_line_conductor_4;
	spacing line_spacing_18;
}

object line_configuration {
	name line_configuration_35;
	conductor_A overhead_line_conductor_4;
	conductor_B overhead_line_conductor_4;
	conductor_C overhead_line_conductor_4;
	conductor_N overhead_line_conductor_4;
	spacing line_spacing_16;
}

object line_configuration {
	name line_configuration_36;
	conductor_A overhead_line_conductor_5;
	conductor_B overhead_line_conductor_5;
	conductor_C overhead_line_conductor_5;
	conductor_N overhead_line_conductor_5;
	spacing line_spacing_16;
}

object line_configuration {
	name line_configuration_37;
	conductor_B overhead_line_conductor_5;
	conductor_N overhead_line_conductor_5;
	spacing line_spacing_17;
}

object line_configuration {
	name line_configuration_38;
	conductor_A overhead_line_conductor_6;
	conductor_B overhead_line_conductor_6;
	conductor_C overhead_line_conductor_6;
	conductor_N overhead_line_conductor_6;
	spacing line_spacing_16;
}

object line_configuration {
	name line_configuration_39;
	conductor_A overhead_line_conductor_3;
	conductor_N overhead_line_conductor_3;
	spacing line_spacing_18;
}

object line_configuration {
	name line_configuration_40;
	conductor_A overhead_line_conductor_3;
	conductor_B overhead_line_conductor_3;
	conductor_C overhead_line_conductor_3;
	conductor_N overhead_line_conductor_3;
	spacing line_spacing_16;
}

object line_configuration {
	name line_configuration_41;
	conductor_B overhead_line_conductor_3;
	conductor_N overhead_line_conductor_3;
	spacing line_spacing_17;
}

object line_configuration {
	name line_configuration_42;
	conductor_C overhead_line_conductor_4;
	conductor_N overhead_line_conductor_4;
	spacing line_spacing_15;
}

object line_configuration {
	name line_configuration_43;
	conductor_A overhead_line_conductor_7;
	conductor_N overhead_line_conductor_7;
	spacing line_spacing_18;
}

object line_configuration {
	name line_configuration_44;
	conductor_A overhead_line_conductor_5;
	conductor_N overhead_line_conductor_5;
	spacing line_spacing_18;
}

object line_configuration {
	name line_configuration_45;
	conductor_A overhead_line_conductor_8;
	conductor_B overhead_line_conductor_8;
	conductor_C overhead_line_conductor_8;
	conductor_N overhead_line_conductor_8;
	spacing line_spacing_16;
}

object line_configuration {
	name line_configuration_46;
	conductor_B underground_line_conductor_9;
	conductor_N underground_line_conductor_9;
	spacing line_spacing_19;
}

object line_configuration {
	name line_configuration_47;
	conductor_A overhead_line_conductor_10;
	conductor_B overhead_line_conductor_10;
	conductor_C overhead_line_conductor_10;
	conductor_N overhead_line_conductor_10;
	spacing line_spacing_16;
}

object line_configuration {
	name line_configuration_48;
	conductor_A overhead_line_conductor_2;
	conductor_B overhead_line_conductor_2;
	conductor_C overhead_line_conductor_2;
	conductor_N overhead_line_conductor_2;
	spacing line_spacing_16;
}

object line_configuration {
	name line_configuration_49;
	conductor_B overhead_line_conductor_2;
	conductor_N overhead_line_conductor_2;
	spacing line_spacing_17;
}

object line_configuration {
	name line_configuration_50;
	conductor_A overhead_line_conductor_3;
	conductor_N overhead_line_conductor_3;
	spacing line_spacing_20;
}

object line_configuration {
	name line_configuration_51;
	conductor_A underground_line_conductor_9;
	conductor_N underground_line_conductor_9;
	spacing line_spacing_21;
}

object line_configuration {
	name line_configuration_52;
	conductor_C underground_line_conductor_9;
	conductor_N underground_line_conductor_9;
	spacing line_spacing_22;
}

object line_configuration {
	name line_configuration_53;
	conductor_A underground_line_conductor_11;
	conductor_N underground_line_conductor_11;
	spacing line_spacing_21;
}

object line_configuration {
	name line_configuration_54;
	conductor_A underground_line_conductor_9;
	conductor_B underground_line_conductor_9;
	conductor_C underground_line_conductor_9;
	conductor_N underground_line_conductor_9;
	spacing line_spacing_23;
}

object line_configuration {
	name line_configuration_55;
	conductor_A overhead_line_conductor_6;
	conductor_B overhead_line_conductor_6;
	conductor_C overhead_line_conductor_6;
	conductor_N overhead_line_conductor_6;
	spacing line_spacing_16;
}

object line_configuration {
	name line_configuration_56;
	conductor_B overhead_line_conductor_4;
	conductor_N overhead_line_conductor_4;
	spacing line_spacing_17;
}

object line_configuration {
	name line_configuration_57;
	conductor_A overhead_line_conductor_6;
	conductor_B overhead_line_conductor_6;
	conductor_C overhead_line_conductor_6;
	conductor_N overhead_line_conductor_6;
	spacing line_spacing_16;
}

object line_configuration {
	name line_configuration_58;
	conductor_A overhead_line_conductor_2;
	conductor_N overhead_line_conductor_2;
	spacing line_spacing_18;
}

object line_configuration {
	name line_configuration_59;
	conductor_A overhead_line_conductor_10;
	conductor_B overhead_line_conductor_10;
	conductor_C overhead_line_conductor_10;
	conductor_N overhead_line_conductor_10;
	spacing line_spacing_16;
}

object line_configuration {
	name line_configuration_60;
	conductor_A overhead_line_conductor_12;
	conductor_B overhead_line_conductor_12;
	conductor_C overhead_line_conductor_12;
	conductor_N overhead_line_conductor_12;
	spacing line_spacing_16;
}

object line_configuration {
	name line_configuration_61;
	conductor_B overhead_line_conductor_4;
	conductor_C overhead_line_conductor_4;
	conductor_N overhead_line_conductor_4;
	spacing line_spacing_24;
}

object line_configuration {
	name line_configuration_62;
	conductor_A overhead_line_conductor_13;
	conductor_B overhead_line_conductor_13;
	conductor_C overhead_line_conductor_13;
	conductor_N overhead_line_conductor_13;
	spacing line_spacing_16;
}

object line_configuration {
	name line_configuration_63;
	conductor_B overhead_line_conductor_2;
	conductor_C overhead_line_conductor_2;
	conductor_N overhead_line_conductor_2;
	spacing line_spacing_24;
}

object line_configuration {
	name line_configuration_64;
	conductor_C overhead_line_conductor_10;
	conductor_N overhead_line_conductor_10;
	spacing line_spacing_15;
}

object line_configuration {
	name line_configuration_65;
	conductor_A overhead_line_conductor_3;
	conductor_B overhead_line_conductor_3;
	conductor_C overhead_line_conductor_3;
	conductor_N overhead_line_conductor_3;
	spacing line_spacing_16;
}

object line_configuration {
	name line_configuration_66;
	conductor_C underground_line_conductor_11;
	conductor_N underground_line_conductor_11;
	spacing line_spacing_22;
}

object line_configuration {
	name line_configuration_67;
	conductor_A overhead_line_conductor_13;
	conductor_N overhead_line_conductor_13;
	spacing line_spacing_18;
}

object line_configuration {
	name line_configuration_68;
	conductor_A overhead_line_conductor_3;
	conductor_C overhead_line_conductor_3;
	conductor_N overhead_line_conductor_3;
	spacing line_spacing_25;
}

object line_configuration {
	name line_configuration_69;
	conductor_A overhead_line_conductor_10;
	conductor_C overhead_line_conductor_10;
	conductor_N overhead_line_conductor_10;
	spacing line_spacing_25;
}

object line_configuration {
	name line_configuration_70;
	conductor_A overhead_line_conductor_2;
	conductor_C overhead_line_conductor_2;
	conductor_N overhead_line_conductor_2;
	spacing line_spacing_25;
}

object line_configuration {
	name line_configuration_71;
	conductor_A overhead_line_conductor_4;
	conductor_C overhead_line_conductor_4;
	conductor_N overhead_line_conductor_4;
	spacing line_spacing_25;
}

object line_configuration {
	name line_configuration_72;
	conductor_A overhead_line_conductor_3;
	conductor_B overhead_line_conductor_3;
	conductor_N overhead_line_conductor_3;
	spacing line_spacing_26;
}

object line_configuration {
	name line_configuration_73;
	conductor_A overhead_line_conductor_2;
	conductor_B overhead_line_conductor_2;
	conductor_N overhead_line_conductor_2;
	spacing line_spacing_26;
}

object line_configuration {
	name line_configuration_74;
	conductor_B underground_line_conductor_11;
	conductor_N underground_line_conductor_11;
	spacing line_spacing_19;
}

object line_configuration {
	name line_configuration_75;
	conductor_B overhead_line_conductor_2;
	conductor_N overhead_line_conductor_2;
	spacing line_spacing_17;
}

object line_configuration {
	name line_configuration_76;
	conductor_A overhead_line_conductor_5;
	conductor_B overhead_line_conductor_5;
	conductor_C overhead_line_conductor_5;
	conductor_N overhead_line_conductor_5;
	spacing line_spacing_16;
}

object line_configuration {
	name line_configuration_77;
	conductor_A overhead_line_conductor_5;
	conductor_B overhead_line_conductor_5;
	conductor_C overhead_line_conductor_5;
	conductor_N overhead_line_conductor_5;
	spacing line_spacing_16;
}

object line_configuration {
	name line_configuration_78;
	conductor_C overhead_line_conductor_6;
	conductor_N overhead_line_conductor_6;
	spacing line_spacing_15;
}

object line_configuration {
	name line_configuration_79;
	conductor_A underground_line_conductor_9;
	conductor_B underground_line_conductor_9;
	conductor_N underground_line_conductor_9;
	spacing line_spacing_27;
}

object line_configuration {
	name line_configuration_80;
	conductor_C overhead_line_conductor_12;
	conductor_N overhead_line_conductor_12;
	spacing line_spacing_15;
}

object line_configuration {
	name line_configuration_81;
	conductor_B overhead_line_conductor_4;
	conductor_C overhead_line_conductor_4;
	conductor_N overhead_line_conductor_4;
	spacing line_spacing_24;
}

object line_configuration {
	name line_configuration_82;
	conductor_A overhead_line_conductor_3;
	conductor_B overhead_line_conductor_3;
	conductor_C overhead_line_conductor_3;
	conductor_N overhead_line_conductor_3;
	spacing line_spacing_23;
}

object line_configuration {
	name line_configuration_83;
	conductor_B overhead_line_conductor_3;
	conductor_C overhead_line_conductor_3;
	conductor_N overhead_line_conductor_3;
	spacing line_spacing_24;
}

object line_configuration {
	name line_configuration_84;
	conductor_C overhead_line_conductor_4;
	conductor_N overhead_line_conductor_4;
	spacing line_spacing_15;
}

object line_configuration {
	name line_configuration_85;
	conductor_A overhead_line_conductor_5;
	conductor_C overhead_line_conductor_5;
	conductor_N overhead_line_conductor_5;
	spacing line_spacing_25;
}

object line_configuration {
	name line_configuration_86;
	conductor_C overhead_line_conductor_7;
	conductor_N overhead_line_conductor_7;
	spacing line_spacing_15;
}

object line_configuration {
	name line_configuration_87;
	conductor_C overhead_line_conductor_5;
	conductor_N overhead_line_conductor_5;
	spacing line_spacing_15;
}

object line_spacing {
	name line_spacing_15;
	distance_CN 39.396 in;
}

object line_spacing {
	name line_spacing_16;
	distance_AB 48.0 in;
	distance_BC 48.0 in;
	distance_AC 48.0 in;
	distance_AN 39.396 in;
	distance_BN 39.396 in;
	distance_CN 39.396 in;
}

object line_spacing {
	name line_spacing_17;
	distance_BN 39.396 in;
}

object line_spacing {
	name line_spacing_18;
	distance_AN 39.396 in;
}

object line_spacing {
	name line_spacing_19;
	distance_BN 36.0 in;
}

object line_spacing {
	name line_spacing_20;
	distance_AN 39.4 in;
}

object line_spacing {
	name line_spacing_21;
	distance_AN 36.0 in;
}

object line_spacing {
	name line_spacing_22;
	distance_CN 36.0 in;
}

object line_spacing {
	name line_spacing_23;
	distance_AB 48.0 in;
	distance_BC 48.0 in;
	distance_AC 48.0 in;
	distance_AN 36.0 in;
	distance_BN 36.0 in;
	distance_CN 36.0 in;
}

object line_spacing {
	name line_spacing_24;
	distance_BC 48.0 in;
	distance_BN 39.396 in;
	distance_CN 39.396 in;
}

object line_spacing {
	name line_spacing_25;
	distance_AC 48.0 in;
	distance_AN 39.396 in;
	distance_CN 39.396 in;
}

object line_spacing {
	name line_spacing_26;
	distance_AB 48.0 in;
	distance_AN 39.396 in;
	distance_BN 39.396 in;
}

object line_spacing {
	name line_spacing_27;
	distance_AB 48.0 in;
	distance_AN 36.0 in;
	distance_BN 36.0 in;
}

object overhead_line_conductor {
	name overhead_line_conductor_2;
	rating.summer.continuous 84.0;
	geometric_mean_radius 0.00417 ft;
	resistance 3.84030;
}

object overhead_line_conductor {
	name overhead_line_conductor_3;
	rating.summer.continuous 164.0;
	geometric_mean_radius 0.00883 ft;
	resistance 1.51970;
}

object overhead_line_conductor {
	name overhead_line_conductor_4;
	rating.summer.continuous 149.0;
	geometric_mean_radius 0.00663 ft;
	resistance 1.50000;
}

object overhead_line_conductor {
	name overhead_line_conductor_5;
	rating.summer.continuous 334.0;
	geometric_mean_radius 0.00814 ft;
	resistance 0.56300;
}

object overhead_line_conductor {
	name overhead_line_conductor_6;
	rating.summer.continuous 443.0;
	geometric_mean_radius 0.02270 ft;
	resistance 0.05230;
}

object overhead_line_conductor {
	name overhead_line_conductor_7;
	rating.summer.continuous 32.2;
	geometric_mean_radius 0.00416 ft;
	resistance 3.80000;
}

object overhead_line_conductor {
	name overhead_line_conductor_8;
	rating.summer.continuous 600.0;
	geometric_mean_radius 0.00801 ft;
	resistance 0.30590;
}

object overhead_line_conductor {
	name overhead_line_conductor_10;
	rating.summer.continuous 120.0;
	geometric_mean_radius 0.00700 ft;
	resistance 2.40970;
}

object overhead_line_conductor {
	name overhead_line_conductor_12;
	rating.summer.continuous 204.0;
	geometric_mean_radius 0.00836 ft;
	resistance 0.94500;
}

object overhead_line_conductor {
	name overhead_line_conductor_13;
	rating.summer.continuous 197.0;
	geometric_mean_radius 0.00883 ft;
	resistance 1.51970;
}

object overhead_line_conductor {
	name overhead_line_conductor_14;
	rating.summer.continuous 891.0;
	geometric_mean_radius 0.03550 ft;
	resistance 0.14420;
}

object transformer_configuration {
	name transformer_configuration_2672;
	connect_type SINGLE_PHASE_CENTER_TAPPED;
	install_type POLETOP;
	primary_voltage 19918.58 V;
	secondary_voltage 120 V;
	power_rating 25.0;
	powerA_rating 25.0;
	resistance 0.00600;
	reactance 0.00400;
	shunt_impedance 339.610+362.733j;
}

object transformer_configuration {
	name transformer_configuration_2673;
	connect_type SINGLE_PHASE_CENTER_TAPPED;
	install_type PADMOUNT;
	primary_voltage 19918.58 V;
	secondary_voltage 120 V;
	power_rating 25.0;
	powerA_rating 25.0;
	resistance 0.00600;
	reactance 0.00400;
	shunt_impedance 339.610+295.888j;
}

object transformer_configuration {
	name transformer_configuration_2674;
	connect_type SINGLE_PHASE_CENTER_TAPPED;
	install_type PADMOUNT;
	primary_voltage 19918.58 V;
	secondary_voltage 120 V;
	power_rating 75.0;
	powerA_rating 75.0;
	resistance 0.00200;
	reactance 0.00133;
	shunt_impedance 443.910+453.591j;
}

object transformer_configuration {
	name transformer_configuration_2675;
	connect_type SINGLE_PHASE_CENTER_TAPPED;
	install_type POLETOP;
	primary_voltage 19918.58 V;
	secondary_voltage 120 V;
	power_rating 50.0;
	powerA_rating 50.0;
	resistance 0.00300;
	reactance 0.00200;
	shunt_impedance 391.760+330.388j;
}

object transformer_configuration {
	name transformer_configuration_2676;
	connect_type SINGLE_PHASE_CENTER_TAPPED;
	install_type POLETOP;
	primary_voltage 19918.58 V;
	secondary_voltage 120 V;
	power_rating 15.0;
	powerA_rating 15.0;
	resistance 0.01000;
	reactance 0.00667;
	shunt_impedance 318.750+343.717j;
}

object transformer_configuration {
	name transformer_configuration_2677;
	connect_type SINGLE_PHASE_CENTER_TAPPED;
	install_type POLETOP;
	primary_voltage 19918.58 V;
	secondary_voltage 120 V;
	power_rating 75.0;
	powerA_rating 75.0;
	resistance 0.00200;
	reactance 0.00133;
	shunt_impedance 443.910+430.123j;
}

object transformer_configuration {
	name transformer_configuration_2678;
	connect_type SINGLE_PHASE_CENTER_TAPPED;
	install_type POLETOP;
	primary_voltage 19918.58 V;
	secondary_voltage 120 V;
	power_rating 10.0;
	powerA_rating 10.0;
	resistance 0.015;
	reactance 0.01;
	shunt_impedance 308.320+328.525j;
}

object transformer_configuration {
	name transformer_configuration_2679;
	connect_type SINGLE_PHASE_CENTER_TAPPED;
	install_type PADMOUNT;
	primary_voltage 19918.58 V;
	secondary_voltage 120 V;
	power_rating 15.0;
	powerA_rating 15.0;
	resistance 0.01000;
	reactance 0.00667;
	shunt_impedance 318.750+301.618j;
}

object transformer_configuration {
	name transformer_configuration_2680;
	connect_type SINGLE_PHASE_CENTER_TAPPED;
	install_type POLETOP;
	primary_voltage 19918.58 V;
	secondary_voltage 120 V;
	power_rating 125.0;
	powerA_rating 125.0;
	resistance 0.00120;
	reactance 0.00080;
	shunt_impedance 548.210+566.227j;
}

object transformer_configuration {
	name transformer_configuration_2681;
	connect_type SINGLE_PHASE_CENTER_TAPPED;
	install_type POLETOP;
	primary_voltage 19918.58 V;
	secondary_voltage 120 V;
	power_rating 37.5;
	powerA_rating 37.5;
	resistance 0.00400;
	reactance 0.00267;
	shunt_impedance 365.685+404.231j;
}

object transformer_configuration {
	name transformer_configuration_2682;
	connect_type SINGLE_PHASE_CENTER_TAPPED;
	install_type POLETOP;
	primary_voltage 19918.58 V;
	secondary_voltage 120 V;
	power_rating 25.0;
	powerB_rating 25.0;
	resistance 0.00600;
	reactance 0.00400;
	shunt_impedance 339.610+272.377j;
}

object transformer_configuration {
	name transformer_configuration_2683;
	connect_type SINGLE_PHASE_CENTER_TAPPED;
	install_type POLETOP;
	primary_voltage 19918.58 V;
	secondary_voltage 120 V;
	power_rating 50.0;
	powerB_rating 50.0;
	resistance 0.00300;
	reactance 0.00200;
	shunt_impedance 391.760+318.603j;
}

object transformer_configuration {
	name transformer_configuration_2684;
	connect_type SINGLE_PHASE_CENTER_TAPPED;
	install_type POLETOP;
	primary_voltage 19918.58 V;
	secondary_voltage 120 V;
	power_rating 15.0;
	powerB_rating 15.0;
	resistance 0.01000;
	reactance 0.00667;
	shunt_impedance 318.750+260.344j;
}

object transformer_configuration {
	name transformer_configuration_2685;
	connect_type SINGLE_PHASE_CENTER_TAPPED;
	install_type PADMOUNT;
	primary_voltage 19918.58 V;
	secondary_voltage 120 V;
	power_rating 25.0;
	powerB_rating 25.0;
	resistance 0.00600;
	reactance 0.00400;
	shunt_impedance 339.610+368.429j;
}

object transformer_configuration {
	name transformer_configuration_2686;
	connect_type SINGLE_PHASE_CENTER_TAPPED;
	install_type PADMOUNT;
	primary_voltage 19918.58 V;
	secondary_voltage 120 V;
	power_rating 15.0;
	powerB_rating 15.0;
	resistance 0.01000;
	reactance 0.00667;
	shunt_impedance 318.750+331.665j;
}

object transformer_configuration {
	name transformer_configuration_2687;
	connect_type SINGLE_PHASE_CENTER_TAPPED;
	install_type PADMOUNT;
	primary_voltage 19918.58 V;
	secondary_voltage 120 V;
	power_rating 75.0;
	powerB_rating 75.0;
	resistance 0.00200;
	reactance 0.00133;
	shunt_impedance 443.910+412.727j;
}

object transformer_configuration {
	name transformer_configuration_2688;
	connect_type SINGLE_PHASE_CENTER_TAPPED;
	install_type POLETOP;
	primary_voltage 19918.58 V;
	secondary_voltage 120 V;
	power_rating 62.5;
	powerB_rating 62.5;
	resistance 0.00240;
	reactance 0.00160;
	shunt_impedance 417.835+480.470j;
}

object transformer_configuration {
	name transformer_configuration_2689;
	connect_type SINGLE_PHASE_CENTER_TAPPED;
	install_type POLETOP;
	primary_voltage 19918.58 V;
	secondary_voltage 120 V;
	power_rating 37.5;
	powerB_rating 37.5;
	resistance 0.00400;
	reactance 0.00267;
	shunt_impedance 365.685+370.724j;
}

object transformer_configuration {
	name transformer_configuration_2690;
	connect_type SINGLE_PHASE_CENTER_TAPPED;
	install_type POLETOP;
	primary_voltage 19918.58 V;
	secondary_voltage 120 V;
	power_rating 125.0;
	powerB_rating 125.0;
	resistance 0.00120;
	reactance 0.00080;
	shunt_impedance 548.210+461.219j;
}

object transformer_configuration {
	name transformer_configuration_2691;
	connect_type SINGLE_PHASE_CENTER_TAPPED;
	install_type POLETOP;
	primary_voltage 19918.58 V;
	secondary_voltage 120 V;
	power_rating 100.0;
	powerB_rating 100.0;
	resistance 0.00150;
	reactance 0.00100;
	shunt_impedance 496.060+445.504j;
}

object transformer_configuration {
	name transformer_configuration_2692;
	connect_type SINGLE_PHASE_CENTER_TAPPED;
	install_type POLETOP;
	primary_voltage 19918.58 V;
	secondary_voltage 120 V;
	power_rating 25.0;
	powerC_rating 25.0;
	resistance 0.00600;
	reactance 0.00400;
	shunt_impedance 339.610+292.566j;
}

object transformer_configuration {
	name transformer_configuration_2693;
	connect_type SINGLE_PHASE_CENTER_TAPPED;
	install_type POLETOP;
	primary_voltage 19918.58 V;
	secondary_voltage 120 V;
	power_rating 15.0;
	powerC_rating 15.0;
	resistance 0.01000;
	reactance 0.00667;
	shunt_impedance 318.750+349.187j;
}

object transformer_configuration {
	name transformer_configuration_2694;
	connect_type SINGLE_PHASE_CENTER_TAPPED;
	install_type POLETOP;
	primary_voltage 19918.58 V;
	secondary_voltage 120 V;
	power_rating 75.0;
	powerC_rating 75.0;
	resistance 0.00200;
	reactance 0.00133;
	shunt_impedance 443.910+417.226j;
}

object transformer_configuration {
	name transformer_configuration_2695;
	connect_type SINGLE_PHASE_CENTER_TAPPED;
	install_type POLETOP;
	primary_voltage 19918.58 V;
	secondary_voltage 120 V;
	power_rating 37.5;
	powerC_rating 37.5;
	resistance 0.00400;
	reactance 0.00267;
	shunt_impedance 365.685+322.831j;
}

object transformer_configuration {
	name transformer_configuration_2696;
	connect_type SINGLE_PHASE_CENTER_TAPPED;
	install_type POLETOP;
	primary_voltage 19918.58 V;
	secondary_voltage 120 V;
	power_rating 50.0;
	powerC_rating 50.0;
	resistance 0.00300;
	reactance 0.00200;
	shunt_impedance 391.760+369.151j;
}

object transformer_configuration {
	name transformer_configuration_2697;
	connect_type SINGLE_PHASE_CENTER_TAPPED;
	install_type POLETOP;
	primary_voltage 19918.58 V;
	secondary_voltage 120 V;
	power_rating 62.5;
	powerC_rating 62.5;
	resistance 0.00240;
	reactance 0.00160;
	shunt_impedance 417.835+382.886j;
}

object transformer_configuration {
	name transformer_configuration_2698;
	connect_type SINGLE_PHASE_CENTER_TAPPED;
	install_type PADMOUNT;
	primary_voltage 19918.58 V;
	secondary_voltage 120 V;
	power_rating 15.0;
	powerC_rating 15.0;
	resistance 0.01000;
	reactance 0.00667;
	shunt_impedance 318.750+345.938j;
}

object transformer_configuration {
	name transformer_configuration_2699;
	connect_type SINGLE_PHASE_CENTER_TAPPED;
	install_type POLETOP;
	primary_voltage 19918.58 V;
	secondary_voltage 120 V;
	power_rating 30.0;
	powerC_rating 30.0;
	resistance 0.00500;
	reactance 0.00333;
	shunt_impedance 350.040+366.749j;
}

object transformer_configuration {
	name transformer_configuration_2700;
	connect_type SINGLE_PHASE_CENTER_TAPPED;
	install_type PADMOUNT;
	primary_voltage 19918.58 V;
	secondary_voltage 120 V;
	power_rating 25.0;
	powerC_rating 25.0;
	resistance 0.00600;
	reactance 0.00400;
	shunt_impedance 339.610+349.877j;
}

object transformer_configuration {
	name transformer_configuration_2701;
	connect_type SINGLE_PHASE_CENTER_TAPPED;
	install_type PADMOUNT;
	primary_voltage 19918.58 V;
	secondary_voltage 120 V;
	power_rating 75.0;
	powerC_rating 75.0;
	resistance 0.00200;
	reactance 0.00133;
	shunt_impedance 443.910+462.367j;
}

object transformer_configuration {
	name transformer_configuration_2702;
	connect_type SINGLE_PHASE_CENTER_TAPPED;
	install_type PADMOUNT;
	primary_voltage 19918.58 V;
	secondary_voltage 120 V;
	power_rating 50.0;
	powerC_rating 50.0;
	resistance 0.00300;
	reactance 0.00200;
	shunt_impedance 391.760+393.444j;
}

object transformer_configuration {
	name transformer_configuration_2703;
	connect_type SINGLE_PHASE_CENTER_TAPPED;
	install_type POLETOP;
	primary_voltage 19918.58 V;
	secondary_voltage 120 V;
	power_rating 125.0;
	powerC_rating 125.0;
	resistance 0.00120;
	reactance 0.00080;
	shunt_impedance 548.210+496.193j;
}

object transformer_configuration {
	name transformer_configuration_2704;
	connect_type SINGLE_PHASE_CENTER_TAPPED;
	install_type POLETOP;
	primary_voltage 19918.58 V;
	secondary_voltage 120 V;
	power_rating 100.0;
	powerC_rating 100.0;
	resistance 0.00150;
	reactance 0.00100;
	shunt_impedance 496.060+522.927j;
}

object transformer_configuration {
	name transformer_configuration_2868;
	connect_type WYE_WYE;
	install_type POLETOP;
	primary_voltage 34500.000 V;
	secondary_voltage 480 V;
	power_rating 65.0;
	powerA_rating 25.0;
	powerB_rating 15.0;
	powerC_rating 25.0;
	resistance 0.00154;
	reactance 0.00769;
	shunt_impedance 423.050+388.312j;
}

object transformer_configuration {
	name transformer_configuration_2869;
	connect_type WYE_WYE;
	install_type POLETOP;
	primary_voltage 34500.000 V;
	secondary_voltage 480 V;
	power_rating 25.0;
	powerA_rating 25.0;
	resistance 0.00400;
	reactance 0.02000;
	shunt_impedance 339.610+303.207j;
}

object transformer_configuration {
	name transformer_configuration_2870;
	connect_type WYE_WYE;
	install_type POLETOP;
	primary_voltage 34500.000 V;
	secondary_voltage 480 V;
	power_rating 65.0;
	powerA_rating 15.0;
	powerB_rating 25.0;
	powerC_rating 25.0;
	resistance 0.00154;
	reactance 0.00769;
	shunt_impedance 423.050+377.611j;
}

object transformer_configuration {
	name transformer_configuration_2871;
	connect_type WYE_WYE;
	install_type POLETOP;
	primary_voltage 34500.000 V;
	secondary_voltage 480 V;
	power_rating 75.0;
	powerA_rating 75.0;
	resistance 0.00133;
	reactance 0.00667;
	shunt_impedance 443.910+482.510j;
}

object transformer_configuration {
	name transformer_configuration_2872;
	connect_type WYE_WYE;
	install_type POLETOP;
	primary_voltage 34500.000 V;
	secondary_voltage 480 V;
	power_rating 15.0;
	powerA_rating 15.0;
	resistance 0.00667;
	reactance 0.03333;
	shunt_impedance 318.750+350.021j;
}

object transformer_configuration {
	name transformer_configuration_2873;
	connect_type WYE_WYE;
	install_type POLETOP;
	primary_voltage 34500.000 V;
	secondary_voltage 480 V;
	power_rating 90.0;
	powerA_rating 30.0;
	powerB_rating 30.0;
	powerC_rating 30.0;
	resistance 0.00111;
	reactance 0.00556;
	shunt_impedance 475.200+391.621j;
}

object transformer_configuration {
	name transformer_configuration_2874;
	connect_type WYE_WYE;
	install_type POLETOP;
	primary_voltage 34500.000 V;
	secondary_voltage 480 V;
	power_rating 45.0;
	powerA_rating 15.0;
	powerB_rating 15.0;
	powerC_rating 15.0;
	resistance 0.00222;
	reactance 0.01111;
	shunt_impedance 381.330+375.683j;
}

object transformer_configuration {
	name transformer_configuration_2875;
	connect_type WYE_WYE;
	install_type POLETOP;
	primary_voltage 34500.000 V;
	secondary_voltage 480 V;
	power_rating 25.0;
	powerB_rating 25.0;
	resistance 0.00400;
	reactance 0.02000;
	shunt_impedance 339.610+348.166j;
}

object transformer_configuration {
	name transformer_configuration_2876;
	connect_type WYE_WYE;
	install_type POLETOP;
	primary_voltage 34500.000 V;
	secondary_voltage 480 V;
	power_rating 30.0;
	powerB_rating 30.0;
	resistance 0.00333;
	reactance 0.01667;
	shunt_impedance 350.040+328.674j;
}

object transformer_configuration {
	name transformer_configuration_2877;
	connect_type WYE_WYE;
	install_type POLETOP;
	primary_voltage 34500.000 V;
	secondary_voltage 480 V;
	power_rating 75.0;
	powerA_rating 25.0;
	powerB_rating 25.0;
	powerC_rating 25.0;
	resistance 0.00133;
	reactance 0.00667;
	shunt_impedance 443.910+477.691j;
}

object transformer_configuration {
	name transformer_configuration_2878;
	connect_type WYE_WYE;
	install_type POLETOP;
	primary_voltage 34500.000 V;
	secondary_voltage 480 V;
	power_rating 60.0;